/*---------------------------------------------------------------------------*\
| =========                 |                                                 |
| \\      /  F ield         | OpenFOAM: The Open Source CFD Toolbox           |
|  \\    /   O peration     | Version:  2.2.x                                 |
|   \\  /    A nd           | Web:      www.OpenFOAM.org                      |
|    \\/     M anipulation  |                                                 |
\*---------------------------------------------------------------------------*/
Build  : 2.2.x
Exec   : blockMesh
Date   : Apr 23 2020
Time   : 23:12:39
Host   : "perseus"
PID    : 1321
Case   : /home/mostafas/OpenFOAM/OpenFOAM-2.2.x/tutorials/basic/scalarTransportFoam/pitzDaily
nProcs : 1
sigFpe : Floating point exception trapping - not supported on this platform
fileModificationChecking : Monitoring run-time modified files using timeStampMaster
allowSystemOperations : Disallowing user-supplied system call operations

// * * * * * * * * * * * * * * * * * * * * * * * * * * * * * * * * * * * * * //
Create time

Creating block mesh from
    "/home/mostafas/OpenFOAM/OpenFOAM-2.2.x/tutorials/basic/scalarTransportFoam/pitzDaily/constant/polyMesh/blockMeshDict"
Creating curved edges
Creating topology blocks
Creating topology patches

Creating block mesh topology

Check topology

	Basic statistics
		Number of internal faces : 18
		Number of boundary faces : 42
		Number of defined boundary faces : 42
		Number of undefined boundary faces : 0
	Checking patch -> block consistency

Creating block offsets
Creating merge list .

Creating polyMesh from blockMesh
Creating points with scale 0.001
Creating cells
Creating patches

Writing polyMesh
----------------
Mesh Information
----------------
  boundingBox: (-0.0206 -0.0254 -0.0005) (0.29 0.0254 0.0005)
  nPoints: 25012
  nCells: 12225
  nFaces: 49180
  nInternalFaces: 24170
----------------
Patches
----------------
  patch 0 (start: 24170 size: 30) name: inlet
  patch 1 (start: 24200 size: 57) name: outlet
  patch 2 (start: 24257 size: 223) name: upperWall
  patch 3 (start: 24480 size: 250) name: lowerWall
  patch 4 (start: 24730 size: 24450) name: frontAndBack

End

/*---------------------------------------------------------------------------*\
| =========                 |                                                 |
| \\      /  F ield         | OpenFOAM: The Open Source CFD Toolbox           |
|  \\    /   O peration     | Version:  2.2.x                                 |
|   \\  /    A nd           | Web:      www.OpenFOAM.org                      |
|    \\/     M anipulation  |                                                 |
\*---------------------------------------------------------------------------*/
Build  : 2.2.x
Exec   : scalarTransportFoam
Date   : Apr 23 2020
Time   : 23:12:39
Host   : "perseus"
PID    : 1323
Case   : /home/mostafas/OpenFOAM/OpenFOAM-2.2.x/tutorials/basic/scalarTransportFoam/pitzDaily
nProcs : 1
sigFpe : Floating point exception trapping - not supported on this platform
fileModificationChecking : Monitoring run-time modified files using timeStampMaster
allowSystemOperations : Disallowing user-supplied system call operations

// * * * * * * * * * * * * * * * * * * * * * * * * * * * * * * * * * * * * * //
Create time

Create mesh for time = 0

Reading field T

Reading field U

Reading transportProperties

Reading diffusivity DT

Reading/calculating face flux field phi

No finite volume options present


SIMPLE: no convergence criteria found. Calculations will run for 0.1 steps.


Calculating scalar transport

Courant Number mean: 0.447747 max: 1.94843
Time = 0.0001

DILUPBiCG:  Solving for T, Initial residual = 1, Final residual = 8.2339e-07, No Iterations 11
Time = 0.0002

DILUPBiCG:  Solving for T, Initial residual = 0.177088, Final residual = 7.3629e-07, No Iterations 10
Time = 0.0003

DILUPBiCG:  Solving for T, Initial residual = 0.0897568, Final residual = 6.64008e-07, No Iterations 10
Time = 0.0004

DILUPBiCG:  Solving for T, Initial residual = 0.0607688, Final residual = 7.72011e-07, No Iterations 10
Time = 0.0005

DILUPBiCG:  Solving for T, Initial residual = 0.0469172, Final residual = 5.98487e-07, No Iterations 10
Time = 0.0006

DILUPBiCG:  Solving for T, Initial residual = 0.0387682, Final residual = 5.68796e-07, No Iterations 10
Time = 0.0007

DILUPBiCG:  Solving for T, Initial residual = 0.033271, Final residual = 5.17231e-07, No Iterations 10
Time = 0.0008

DILUPBiCG:  Solving for T, Initial residual = 0.0291388, Final residual = 4.82494e-07, No Iterations 10
Time = 0.0009

DILUPBiCG:  Solving for T, Initial residual = 0.0259124, Final residual = 2.1827e-07, No Iterations 11
Time = 0.001

DILUPBiCG:  Solving for T, Initial residual = 0.0233099, Final residual = 6.89245e-07, No Iterations 10
Time = 0.0011

DILUPBiCG:  Solving for T, Initial residual = 0.0211574, Final residual = 5.50236e-07, No Iterations 10
Time = 0.0012

DILUPBiCG:  Solving for T, Initial residual = 0.0193409, Final residual = 4.8732e-07, No Iterations 10
Time = 0.0013

DILUPBiCG:  Solving for T, Initial residual = 0.0177853, Final residual = 4.49062e-07, No Iterations 10
Time = 0.0014

DILUPBiCG:  Solving for T, Initial residual = 0.016437, Final residual = 4.25006e-07, No Iterations 10
Time = 0.0015

DILUPBiCG:  Solving for T, Initial residual = 0.0152572, Final residual = 9.40061e-07, No Iterations 9
Time = 0.0016

DILUPBiCG:  Solving for T, Initial residual = 0.0142169, Final residual = 2.78503e-07, No Iterations 10
Time = 0.0017

DILUPBiCG:  Solving for T, Initial residual = 0.0132936, Final residual = 1.08371e-07, No Iterations 11
Time = 0.0018

DILUPBiCG:  Solving for T, Initial residual = 0.0124702, Final residual = 1.09496e-07, No Iterations 11
Time = 0.0019

DILUPBiCG:  Solving for T, Initial residual = 0.0117326, Final residual = 1.08735e-07, No Iterations 11
Time = 0.002

DILUPBiCG:  Solving for T, Initial residual = 0.0110694, Final residual = 3.80148e-07, No Iterations 10
Time = 0.0021

DILUPBiCG:  Solving for T, Initial residual = 0.0104714, Final residual = 4.14001e-07, No Iterations 10
Time = 0.0022

DILUPBiCG:  Solving for T, Initial residual = 0.00993066, Final residual = 3.18343e-07, No Iterations 10
Time = 0.0023

DILUPBiCG:  Solving for T, Initial residual = 0.0094403, Final residual = 9.95236e-07, No Iterations 9
Time = 0.0024

DILUPBiCG:  Solving for T, Initial residual = 0.00899478, Final residual = 9.1466e-07, No Iterations 9
Time = 0.0025

DILUPBiCG:  Solving for T, Initial residual = 0.00858886, Final residual = 8.88042e-07, No Iterations 9
Time = 0.0026

DILUPBiCG:  Solving for T, Initial residual = 0.00821837, Final residual = 8.44761e-07, No Iterations 9
Time = 0.0027

DILUPBiCG:  Solving for T, Initial residual = 0.00787933, Final residual = 8.47503e-07, No Iterations 9
Time = 0.0028

DILUPBiCG:  Solving for T, Initial residual = 0.00756854, Final residual = 8.8485e-07, No Iterations 9
Time = 0.0029

DILUPBiCG:  Solving for T, Initial residual = 0.0072829, Final residual = 1.49307e-07, No Iterations 10
Time = 0.003

DILUPBiCG:  Solving for T, Initial residual = 0.0070199, Final residual = 1.47578e-07, No Iterations 10
Time = 0.0031

DILUPBiCG:  Solving for T, Initial residual = 0.00677724, Final residual = 1.48483e-07, No Iterations 10
Time = 0.0032

DILUPBiCG:  Solving for T, Initial residual = 0.00655283, Final residual = 1.595e-07, No Iterations 10
Time = 0.0033

DILUPBiCG:  Solving for T, Initial residual = 0.00634496, Final residual = 4.01487e-07, No Iterations 8
Time = 0.0034

DILUPBiCG:  Solving for T, Initial residual = 0.00615197, Final residual = 5.55445e-07, No Iterations 8
Time = 0.0035

DILUPBiCG:  Solving for T, Initial residual = 0.00597244, Final residual = 6.27718e-07, No Iterations 8
Time = 0.0036

DILUPBiCG:  Solving for T, Initial residual = 0.00580513, Final residual = 6.45691e-07, No Iterations 8
Time = 0.0037

DILUPBiCG:  Solving for T, Initial residual = 0.00564889, Final residual = 6.47964e-07, No Iterations 8
Time = 0.0038

DILUPBiCG:  Solving for T, Initial residual = 0.00550273, Final residual = 6.33645e-07, No Iterations 8
Time = 0.0039

DILUPBiCG:  Solving for T, Initial residual = 0.00536579, Final residual = 6.18106e-07, No Iterations 8
Time = 0.004

DILUPBiCG:  Solving for T, Initial residual = 0.00523726, Final residual = 5.85266e-07, No Iterations 8
Time = 0.0041

DILUPBiCG:  Solving for T, Initial residual = 0.00511641, Final residual = 5.6488e-07, No Iterations 8
Time = 0.0042

DILUPBiCG:  Solving for T, Initial residual = 0.00500263, Final residual = 5.33439e-07, No Iterations 8
Time = 0.0043

DILUPBiCG:  Solving for T, Initial residual = 0.00489533, Final residual = 5.23678e-07, No Iterations 8
Time = 0.0044

DILUPBiCG:  Solving for T, Initial residual = 0.004794, Final residual = 5.06127e-07, No Iterations 8
Time = 0.0045

DILUPBiCG:  Solving for T, Initial residual = 0.00469817, Final residual = 4.76705e-07, No Iterations 8
Time = 0.0046

DILUPBiCG:  Solving for T, Initial residual = 0.00460741, Final residual = 4.60683e-07, No Iterations 8
Time = 0.0047

DILUPBiCG:  Solving for T, Initial residual = 0.00452135, Final residual = 4.26281e-07, No Iterations 8
Time = 0.0048

DILUPBiCG:  Solving for T, Initial residual = 0.00443966, Final residual = 4.01723e-07, No Iterations 8
Time = 0.0049

DILUPBiCG:  Solving for T, Initial residual = 0.004362, Final residual = 3.81663e-07, No Iterations 8
Time = 0.005

DILUPBiCG:  Solving for T, Initial residual = 0.0042881, Final residual = 3.58688e-07, No Iterations 8
Time = 0.0051

DILUPBiCG:  Solving for T, Initial residual = 0.00421772, Final residual = 3.45484e-07, No Iterations 8
Time = 0.0052

DILUPBiCG:  Solving for T, Initial residual = 0.0041506, Final residual = 3.34444e-07, No Iterations 8
Time = 0.0053

DILUPBiCG:  Solving for T, Initial residual = 0.00408653, Final residual = 3.2066e-07, No Iterations 8
Time = 0.0054

DILUPBiCG:  Solving for T, Initial residual = 0.00402533, Final residual = 3.10571e-07, No Iterations 8
Time = 0.0055

DILUPBiCG:  Solving for T, Initial residual = 0.00396681, Final residual = 3.00622e-07, No Iterations 8
Time = 0.0056

DILUPBiCG:  Solving for T, Initial residual = 0.0039108, Final residual = 2.92497e-07, No Iterations 8
Time = 0.0057

DILUPBiCG:  Solving for T, Initial residual = 0.00385715, Final residual = 2.8347e-07, No Iterations 8
Time = 0.0058

DILUPBiCG:  Solving for T, Initial residual = 0.00380574, Final residual = 2.76707e-07, No Iterations 8
Time = 0.0059

DILUPBiCG:  Solving for T, Initial residual = 0.00375641, Final residual = 2.70065e-07, No Iterations 8
Time = 0.006

DILUPBiCG:  Solving for T, Initial residual = 0.00370906, Final residual = 2.64545e-07, No Iterations 8
Time = 0.0061

DILUPBiCG:  Solving for T, Initial residual = 0.00366358, Final residual = 2.6018e-07, No Iterations 8
Time = 0.0062

DILUPBiCG:  Solving for T, Initial residual = 0.00361986, Final residual = 2.56719e-07, No Iterations 8
Time = 0.0063

DILUPBiCG:  Solving for T, Initial residual = 0.00357781, Final residual = 2.53818e-07, No Iterations 8
Time = 0.0064

DILUPBiCG:  Solving for T, Initial residual = 0.00353733, Final residual = 2.52668e-07, No Iterations 8
Time = 0.0065

DILUPBiCG:  Solving for T, Initial residual = 0.00349836, Final residual = 2.52499e-07, No Iterations 8
Time = 0.0066

DILUPBiCG:  Solving for T, Initial residual = 0.00346081, Final residual = 2.55639e-07, No Iterations 8
Time = 0.0067

DILUPBiCG:  Solving for T, Initial residual = 0.0034246, Final residual = 2.60332e-07, No Iterations 8
Time = 0.0068

DILUPBiCG:  Solving for T, Initial residual = 0.00338968, Final residual = 2.70348e-07, No Iterations 8
Time = 0.0069

DILUPBiCG:  Solving for T, Initial residual = 0.00335598, Final residual = 9.92797e-07, No Iterations 7
Time = 0.007

DILUPBiCG:  Solving for T, Initial residual = 0.00332345, Final residual = 5.6799e-07, No Iterations 8
Time = 0.0071

DILUPBiCG:  Solving for T, Initial residual = 0.00329203, Final residual = 9.76392e-07, No Iterations 7
Time = 0.0072

DILUPBiCG:  Solving for T, Initial residual = 0.00326165, Final residual = 2.33444e-07, No Iterations 9
Time = 0.0073

DILUPBiCG:  Solving for T, Initial residual = 0.00323229, Final residual = 9.9442e-07, No Iterations 7
Time = 0.0074

DILUPBiCG:  Solving for T, Initial residual = 0.00320389, Final residual = 6.77528e-07, No Iterations 8
Time = 0.0075

DILUPBiCG:  Solving for T, Initial residual = 0.00317641, Final residual = 5.19857e-07, No Iterations 8
Time = 0.0076

DILUPBiCG:  Solving for T, Initial residual = 0.00314983, Final residual = 4.01534e-07, No Iterations 8
Time = 0.0077

DILUPBiCG:  Solving for T, Initial residual = 0.00312409, Final residual = 3.22995e-07, No Iterations 8
Time = 0.0078

DILUPBiCG:  Solving for T, Initial residual = 0.00309917, Final residual = 2.68524e-07, No Iterations 8
Time = 0.0079

DILUPBiCG:  Solving for T, Initial residual = 0.00307502, Final residual = 2.27481e-07, No Iterations 8
Time = 0.008

DILUPBiCG:  Solving for T, Initial residual = 0.00305161, Final residual = 1.97011e-07, No Iterations 8
Time = 0.0081

DILUPBiCG:  Solving for T, Initial residual = 0.00302891, Final residual = 1.76024e-07, No Iterations 8
Time = 0.0082

DILUPBiCG:  Solving for T, Initial residual = 0.00300691, Final residual = 1.59535e-07, No Iterations 8
Time = 0.0083

DILUPBiCG:  Solving for T, Initial residual = 0.00298557, Final residual = 1.46043e-07, No Iterations 8
Time = 0.0084

DILUPBiCG:  Solving for T, Initial residual = 0.00296488, Final residual = 1.35282e-07, No Iterations 8
Time = 0.0085

DILUPBiCG:  Solving for T, Initial residual = 0.00294478, Final residual = 1.26741e-07, No Iterations 8
Time = 0.0086

DILUPBiCG:  Solving for T, Initial residual = 0.00292527, Final residual = 1.19066e-07, No Iterations 8
Time = 0.0087

DILUPBiCG:  Solving for T, Initial residual = 0.00290634, Final residual = 1.13002e-07, No Iterations 8
Time = 0.0088

DILUPBiCG:  Solving for T, Initial residual = 0.00288795, Final residual = 1.07767e-07, No Iterations 8
Time = 0.0089

DILUPBiCG:  Solving for T, Initial residual = 0.0028701, Final residual = 1.02978e-07, No Iterations 8
Time = 0.009

DILUPBiCG:  Solving for T, Initial residual = 0.00285275, Final residual = 9.87973e-08, No Iterations 8
Time = 0.0091

DILUPBiCG:  Solving for T, Initial residual = 0.00283589, Final residual = 9.52872e-08, No Iterations 8
Time = 0.0092

DILUPBiCG:  Solving for T, Initial residual = 0.00281951, Final residual = 9.18907e-08, No Iterations 8
Time = 0.0093

DILUPBiCG:  Solving for T, Initial residual = 0.0028036, Final residual = 8.9083e-08, No Iterations 8
Time = 0.0094

DILUPBiCG:  Solving for T, Initial residual = 0.00278812, Final residual = 8.6142e-08, No Iterations 8
Time = 0.0095

DILUPBiCG:  Solving for T, Initial residual = 0.00277306, Final residual = 8.41898e-08, No Iterations 8
Time = 0.0096

DILUPBiCG:  Solving for T, Initial residual = 0.00275844, Final residual = 8.20122e-08, No Iterations 8
Time = 0.0097

DILUPBiCG:  Solving for T, Initial residual = 0.00274421, Final residual = 7.98053e-08, No Iterations 8
Time = 0.0098

DILUPBiCG:  Solving for T, Initial residual = 0.00273037, Final residual = 7.78429e-08, No Iterations 8
Time = 0.0099

DILUPBiCG:  Solving for T, Initial residual = 0.0027169, Final residual = 9.83328e-07, No Iterations 6
Time = 0.01

DILUPBiCG:  Solving for T, Initial residual = 0.00270381, Final residual = 9.71812e-07, No Iterations 6
Time = 0.0101

DILUPBiCG:  Solving for T, Initial residual = 0.00269108, Final residual = 9.55279e-07, No Iterations 6
Time = 0.0102

DILUPBiCG:  Solving for T, Initial residual = 0.00267867, Final residual = 9.389e-07, No Iterations 6
Time = 0.0103

DILUPBiCG:  Solving for T, Initial residual = 0.00266661, Final residual = 9.22718e-07, No Iterations 6
Time = 0.0104

DILUPBiCG:  Solving for T, Initial residual = 0.00265488, Final residual = 9.07855e-07, No Iterations 6
Time = 0.0105

DILUPBiCG:  Solving for T, Initial residual = 0.00264345, Final residual = 8.93159e-07, No Iterations 6
Time = 0.0106

DILUPBiCG:  Solving for T, Initial residual = 0.00263233, Final residual = 8.78564e-07, No Iterations 6
Time = 0.0107

DILUPBiCG:  Solving for T, Initial residual = 0.00262152, Final residual = 8.6533e-07, No Iterations 6
Time = 0.0108

DILUPBiCG:  Solving for T, Initial residual = 0.00261099, Final residual = 8.51787e-07, No Iterations 6
Time = 0.0109

DILUPBiCG:  Solving for T, Initial residual = 0.00260074, Final residual = 8.3942e-07, No Iterations 6
Time = 0.011

DILUPBiCG:  Solving for T, Initial residual = 0.00259078, Final residual = 8.26503e-07, No Iterations 6
Time = 0.0111

DILUPBiCG:  Solving for T, Initial residual = 0.00258107, Final residual = 8.14312e-07, No Iterations 6
Time = 0.0112

DILUPBiCG:  Solving for T, Initial residual = 0.00257162, Final residual = 8.02866e-07, No Iterations 6
Time = 0.0113

DILUPBiCG:  Solving for T, Initial residual = 0.00256243, Final residual = 7.91414e-07, No Iterations 6
Time = 0.0114

DILUPBiCG:  Solving for T, Initial residual = 0.00255348, Final residual = 7.80442e-07, No Iterations 6
Time = 0.0115

DILUPBiCG:  Solving for T, Initial residual = 0.00254477, Final residual = 7.69753e-07, No Iterations 6
Time = 0.0116

DILUPBiCG:  Solving for T, Initial residual = 0.00253631, Final residual = 7.59486e-07, No Iterations 6
Time = 0.0117

DILUPBiCG:  Solving for T, Initial residual = 0.00252806, Final residual = 7.49358e-07, No Iterations 6
Time = 0.0118

DILUPBiCG:  Solving for T, Initial residual = 0.00252004, Final residual = 7.39417e-07, No Iterations 6
Time = 0.0119

DILUPBiCG:  Solving for T, Initial residual = 0.00251225, Final residual = 7.30206e-07, No Iterations 6
Time = 0.012

DILUPBiCG:  Solving for T, Initial residual = 0.00250465, Final residual = 7.20905e-07, No Iterations 6
Time = 0.0121

DILUPBiCG:  Solving for T, Initial residual = 0.00249728, Final residual = 7.12189e-07, No Iterations 6
Time = 0.0122

DILUPBiCG:  Solving for T, Initial residual = 0.00249009, Final residual = 7.03499e-07, No Iterations 6
Time = 0.0123

DILUPBiCG:  Solving for T, Initial residual = 0.00248311, Final residual = 6.95068e-07, No Iterations 6
Time = 0.0124

DILUPBiCG:  Solving for T, Initial residual = 0.00247633, Final residual = 6.86613e-07, No Iterations 6
Time = 0.0125

DILUPBiCG:  Solving for T, Initial residual = 0.00246972, Final residual = 6.78748e-07, No Iterations 6
Time = 0.0126

DILUPBiCG:  Solving for T, Initial residual = 0.00246332, Final residual = 6.7053e-07, No Iterations 6
Time = 0.0127

DILUPBiCG:  Solving for T, Initial residual = 0.00245708, Final residual = 6.62826e-07, No Iterations 6
Time = 0.0128

DILUPBiCG:  Solving for T, Initial residual = 0.00245103, Final residual = 6.54779e-07, No Iterations 6
Time = 0.0129

DILUPBiCG:  Solving for T, Initial residual = 0.00244515, Final residual = 6.47563e-07, No Iterations 6
Time = 0.013

DILUPBiCG:  Solving for T, Initial residual = 0.00243943, Final residual = 6.39877e-07, No Iterations 6
Time = 0.0131

DILUPBiCG:  Solving for T, Initial residual = 0.00243389, Final residual = 6.32629e-07, No Iterations 6
Time = 0.0132

DILUPBiCG:  Solving for T, Initial residual = 0.00242851, Final residual = 6.25484e-07, No Iterations 6
Time = 0.0133

DILUPBiCG:  Solving for T, Initial residual = 0.00242329, Final residual = 6.18454e-07, No Iterations 6
Time = 0.0134

DILUPBiCG:  Solving for T, Initial residual = 0.00241822, Final residual = 6.11266e-07, No Iterations 6
Time = 0.0135

DILUPBiCG:  Solving for T, Initial residual = 0.00241331, Final residual = 6.04648e-07, No Iterations 6
Time = 0.0136

DILUPBiCG:  Solving for T, Initial residual = 0.00240856, Final residual = 5.9794e-07, No Iterations 6
Time = 0.0137

DILUPBiCG:  Solving for T, Initial residual = 0.00240394, Final residual = 5.9158e-07, No Iterations 6
Time = 0.0138

DILUPBiCG:  Solving for T, Initial residual = 0.00239948, Final residual = 5.85019e-07, No Iterations 6
Time = 0.0139

DILUPBiCG:  Solving for T, Initial residual = 0.00239515, Final residual = 5.79149e-07, No Iterations 6
Time = 0.014

DILUPBiCG:  Solving for T, Initial residual = 0.00239097, Final residual = 5.73313e-07, No Iterations 6
Time = 0.0141

DILUPBiCG:  Solving for T, Initial residual = 0.00238692, Final residual = 5.67087e-07, No Iterations 6
Time = 0.0142

DILUPBiCG:  Solving for T, Initial residual = 0.00238301, Final residual = 5.61294e-07, No Iterations 6
Time = 0.0143

DILUPBiCG:  Solving for T, Initial residual = 0.00237923, Final residual = 5.55801e-07, No Iterations 6
Time = 0.0144

DILUPBiCG:  Solving for T, Initial residual = 0.00237558, Final residual = 5.50233e-07, No Iterations 6
Time = 0.0145

DILUPBiCG:  Solving for T, Initial residual = 0.00237206, Final residual = 5.44492e-07, No Iterations 6
Time = 0.0146

DILUPBiCG:  Solving for T, Initial residual = 0.00236866, Final residual = 5.398e-07, No Iterations 6
Time = 0.0147

DILUPBiCG:  Solving for T, Initial residual = 0.00236539, Final residual = 5.3441e-07, No Iterations 6
Time = 0.0148

DILUPBiCG:  Solving for T, Initial residual = 0.00236224, Final residual = 5.29359e-07, No Iterations 6
Time = 0.0149

DILUPBiCG:  Solving for T, Initial residual = 0.00235921, Final residual = 5.24853e-07, No Iterations 6
Time = 0.015

DILUPBiCG:  Solving for T, Initial residual = 0.0023563, Final residual = 5.20272e-07, No Iterations 6
Time = 0.0151

DILUPBiCG:  Solving for T, Initial residual = 0.00235351, Final residual = 5.15644e-07, No Iterations 6
Time = 0.0152

DILUPBiCG:  Solving for T, Initial residual = 0.00235083, Final residual = 5.11237e-07, No Iterations 6
Time = 0.0153

DILUPBiCG:  Solving for T, Initial residual = 0.00234826, Final residual = 5.06909e-07, No Iterations 6
Time = 0.0154

DILUPBiCG:  Solving for T, Initial residual = 0.0023458, Final residual = 5.02861e-07, No Iterations 6
Time = 0.0155

DILUPBiCG:  Solving for T, Initial residual = 0.00234346, Final residual = 4.99342e-07, No Iterations 6
Time = 0.0156

DILUPBiCG:  Solving for T, Initial residual = 0.00234122, Final residual = 4.95378e-07, No Iterations 6
Time = 0.0157

DILUPBiCG:  Solving for T, Initial residual = 0.00233909, Final residual = 4.9189e-07, No Iterations 6
Time = 0.0158

DILUPBiCG:  Solving for T, Initial residual = 0.00233706, Final residual = 4.88727e-07, No Iterations 6
Time = 0.0159

DILUPBiCG:  Solving for T, Initial residual = 0.00233515, Final residual = 4.85044e-07, No Iterations 6
Time = 0.016

DILUPBiCG:  Solving for T, Initial residual = 0.00233333, Final residual = 4.81856e-07, No Iterations 6
Time = 0.0161

DILUPBiCG:  Solving for T, Initial residual = 0.00233161, Final residual = 4.79184e-07, No Iterations 6
Time = 0.0162

DILUPBiCG:  Solving for T, Initial residual = 0.00232999, Final residual = 4.76417e-07, No Iterations 6
Time = 0.0163

DILUPBiCG:  Solving for T, Initial residual = 0.00232847, Final residual = 4.73775e-07, No Iterations 6
Time = 0.0164

DILUPBiCG:  Solving for T, Initial residual = 0.00232705, Final residual = 4.71043e-07, No Iterations 6
Time = 0.0165

DILUPBiCG:  Solving for T, Initial residual = 0.00232573, Final residual = 4.69518e-07, No Iterations 6
Time = 0.0166

DILUPBiCG:  Solving for T, Initial residual = 0.00232449, Final residual = 4.67529e-07, No Iterations 6
Time = 0.0167

DILUPBiCG:  Solving for T, Initial residual = 0.00232336, Final residual = 4.65367e-07, No Iterations 6
Time = 0.0168

DILUPBiCG:  Solving for T, Initial residual = 0.00232232, Final residual = 4.64097e-07, No Iterations 6
Time = 0.0169

DILUPBiCG:  Solving for T, Initial residual = 0.00232137, Final residual = 4.63239e-07, No Iterations 6
Time = 0.017

DILUPBiCG:  Solving for T, Initial residual = 0.00232051, Final residual = 4.61837e-07, No Iterations 6
Time = 0.0171

DILUPBiCG:  Solving for T, Initial residual = 0.00231974, Final residual = 4.61355e-07, No Iterations 6
Time = 0.0172

DILUPBiCG:  Solving for T, Initial residual = 0.00231906, Final residual = 4.61105e-07, No Iterations 6
Time = 0.0173

DILUPBiCG:  Solving for T, Initial residual = 0.00231847, Final residual = 4.60924e-07, No Iterations 6
Time = 0.0174

DILUPBiCG:  Solving for T, Initial residual = 0.00231796, Final residual = 4.61424e-07, No Iterations 6
Time = 0.0175

DILUPBiCG:  Solving for T, Initial residual = 0.00231755, Final residual = 4.61938e-07, No Iterations 6
Time = 0.0176

DILUPBiCG:  Solving for T, Initial residual = 0.00231722, Final residual = 4.63354e-07, No Iterations 6
Time = 0.0177

DILUPBiCG:  Solving for T, Initial residual = 0.00231697, Final residual = 4.64938e-07, No Iterations 6
Time = 0.0178

DILUPBiCG:  Solving for T, Initial residual = 0.00231681, Final residual = 4.67151e-07, No Iterations 6
Time = 0.0179

DILUPBiCG:  Solving for T, Initial residual = 0.00231673, Final residual = 4.69787e-07, No Iterations 6
Time = 0.018

DILUPBiCG:  Solving for T, Initial residual = 0.00231674, Final residual = 4.73569e-07, No Iterations 6
Time = 0.0181

DILUPBiCG:  Solving for T, Initial residual = 0.00231683, Final residual = 4.77888e-07, No Iterations 6
Time = 0.0182

DILUPBiCG:  Solving for T, Initial residual = 0.00231699, Final residual = 4.83095e-07, No Iterations 6
Time = 0.0183

DILUPBiCG:  Solving for T, Initial residual = 0.00231724, Final residual = 4.89647e-07, No Iterations 6
Time = 0.0184

DILUPBiCG:  Solving for T, Initial residual = 0.00231757, Final residual = 4.9815e-07, No Iterations 6
Time = 0.0185

DILUPBiCG:  Solving for T, Initial residual = 0.00231798, Final residual = 5.08442e-07, No Iterations 6
Time = 0.0186

DILUPBiCG:  Solving for T, Initial residual = 0.00231848, Final residual = 5.21243e-07, No Iterations 6
Time = 0.0187

DILUPBiCG:  Solving for T, Initial residual = 0.00231904, Final residual = 5.37102e-07, No Iterations 6
Time = 0.0188

DILUPBiCG:  Solving for T, Initial residual = 0.00231969, Final residual = 5.56555e-07, No Iterations 6
Time = 0.0189

DILUPBiCG:  Solving for T, Initial residual = 0.00232041, Final residual = 5.81547e-07, No Iterations 6
Time = 0.019

DILUPBiCG:  Solving for T, Initial residual = 0.00232121, Final residual = 6.13447e-07, No Iterations 6
Time = 0.0191

DILUPBiCG:  Solving for T, Initial residual = 0.0023221, Final residual = 6.541e-07, No Iterations 6
Time = 0.0192

DILUPBiCG:  Solving for T, Initial residual = 0.00232304, Final residual = 7.07406e-07, No Iterations 6
Time = 0.0193

DILUPBiCG:  Solving for T, Initial residual = 0.00232408, Final residual = 7.79143e-07, No Iterations 6
Time = 0.0194

DILUPBiCG:  Solving for T, Initial residual = 0.00232518, Final residual = 8.79486e-07, No Iterations 6
Time = 0.0195

DILUPBiCG:  Solving for T, Initial residual = 0.00232637, Final residual = 2.44378e-07, No Iterations 7
Time = 0.0196

DILUPBiCG:  Solving for T, Initial residual = 0.00232762, Final residual = 2.60012e-07, No Iterations 7
Time = 0.0197

DILUPBiCG:  Solving for T, Initial residual = 0.00232895, Final residual = 2.75095e-07, No Iterations 7
Time = 0.0198

DILUPBiCG:  Solving for T, Initial residual = 0.00233036, Final residual = 2.93539e-07, No Iterations 7
Time = 0.0199

DILUPBiCG:  Solving for T, Initial residual = 0.00233184, Final residual = 3.12154e-07, No Iterations 7
Time = 0.02

DILUPBiCG:  Solving for T, Initial residual = 0.00233338, Final residual = 3.35166e-07, No Iterations 7
Time = 0.0201

DILUPBiCG:  Solving for T, Initial residual = 0.00233501, Final residual = 3.55325e-07, No Iterations 7
Time = 0.0202

DILUPBiCG:  Solving for T, Initial residual = 0.00233671, Final residual = 3.82874e-07, No Iterations 7
Time = 0.0203

DILUPBiCG:  Solving for T, Initial residual = 0.00233848, Final residual = 4.10546e-07, No Iterations 7
Time = 0.0204

DILUPBiCG:  Solving for T, Initial residual = 0.00234033, Final residual = 4.43321e-07, No Iterations 7
Time = 0.0205

DILUPBiCG:  Solving for T, Initial residual = 0.00234224, Final residual = 4.84705e-07, No Iterations 7
Time = 0.0206

DILUPBiCG:  Solving for T, Initial residual = 0.00234422, Final residual = 5.23178e-07, No Iterations 7
Time = 0.0207

DILUPBiCG:  Solving for T, Initial residual = 0.00234629, Final residual = 5.62947e-07, No Iterations 7
Time = 0.0208

DILUPBiCG:  Solving for T, Initial residual = 0.00234842, Final residual = 6.23646e-07, No Iterations 7
Time = 0.0209

DILUPBiCG:  Solving for T, Initial residual = 0.00235062, Final residual = 6.98091e-07, No Iterations 7
Time = 0.021

DILUPBiCG:  Solving for T, Initial residual = 0.0023529, Final residual = 9.81087e-07, No Iterations 6
Time = 0.0211

DILUPBiCG:  Solving for T, Initial residual = 0.00235525, Final residual = 9.27682e-07, No Iterations 6
Time = 0.0212

DILUPBiCG:  Solving for T, Initial residual = 0.00235766, Final residual = 8.77194e-07, No Iterations 6
Time = 0.0213

DILUPBiCG:  Solving for T, Initial residual = 0.00236016, Final residual = 8.36808e-07, No Iterations 6
Time = 0.0214

DILUPBiCG:  Solving for T, Initial residual = 0.00236271, Final residual = 8.02524e-07, No Iterations 6
Time = 0.0215

DILUPBiCG:  Solving for T, Initial residual = 0.00236534, Final residual = 7.72933e-07, No Iterations 6
Time = 0.0216

DILUPBiCG:  Solving for T, Initial residual = 0.00236805, Final residual = 7.4604e-07, No Iterations 6
Time = 0.0217

DILUPBiCG:  Solving for T, Initial residual = 0.00237082, Final residual = 7.23949e-07, No Iterations 6
Time = 0.0218

DILUPBiCG:  Solving for T, Initial residual = 0.00237366, Final residual = 7.0433e-07, No Iterations 6
Time = 0.0219

DILUPBiCG:  Solving for T, Initial residual = 0.00237658, Final residual = 6.87032e-07, No Iterations 6
Time = 0.022

DILUPBiCG:  Solving for T, Initial residual = 0.00237957, Final residual = 6.71046e-07, No Iterations 6
Time = 0.0221

DILUPBiCG:  Solving for T, Initial residual = 0.00238262, Final residual = 6.57241e-07, No Iterations 6
Time = 0.0222

DILUPBiCG:  Solving for T, Initial residual = 0.00238576, Final residual = 6.44694e-07, No Iterations 6
Time = 0.0223

DILUPBiCG:  Solving for T, Initial residual = 0.00238896, Final residual = 6.33248e-07, No Iterations 6
Time = 0.0224

DILUPBiCG:  Solving for T, Initial residual = 0.00239221, Final residual = 6.22429e-07, No Iterations 6
Time = 0.0225

DILUPBiCG:  Solving for T, Initial residual = 0.00239557, Final residual = 6.12924e-07, No Iterations 6
Time = 0.0226

DILUPBiCG:  Solving for T, Initial residual = 0.00239899, Final residual = 6.03928e-07, No Iterations 6
Time = 0.0227

DILUPBiCG:  Solving for T, Initial residual = 0.00240246, Final residual = 5.95422e-07, No Iterations 6
Time = 0.0228

DILUPBiCG:  Solving for T, Initial residual = 0.00240602, Final residual = 5.87368e-07, No Iterations 6
Time = 0.0229

DILUPBiCG:  Solving for T, Initial residual = 0.00240966, Final residual = 5.79862e-07, No Iterations 6
Time = 0.023

DILUPBiCG:  Solving for T, Initial residual = 0.00241335, Final residual = 5.72786e-07, No Iterations 6
Time = 0.0231

DILUPBiCG:  Solving for T, Initial residual = 0.00241712, Final residual = 5.6586e-07, No Iterations 6
Time = 0.0232

DILUPBiCG:  Solving for T, Initial residual = 0.00242097, Final residual = 5.59281e-07, No Iterations 6
Time = 0.0233

DILUPBiCG:  Solving for T, Initial residual = 0.00242488, Final residual = 5.52847e-07, No Iterations 6
Time = 0.0234

DILUPBiCG:  Solving for T, Initial residual = 0.00242886, Final residual = 5.4677e-07, No Iterations 6
Time = 0.0235

DILUPBiCG:  Solving for T, Initial residual = 0.00243293, Final residual = 5.40927e-07, No Iterations 6
Time = 0.0236

DILUPBiCG:  Solving for T, Initial residual = 0.00243706, Final residual = 5.35165e-07, No Iterations 6
Time = 0.0237

DILUPBiCG:  Solving for T, Initial residual = 0.00244125, Final residual = 5.29601e-07, No Iterations 6
Time = 0.0238

DILUPBiCG:  Solving for T, Initial residual = 0.00244554, Final residual = 5.24235e-07, No Iterations 6
Time = 0.0239

DILUPBiCG:  Solving for T, Initial residual = 0.00244989, Final residual = 5.18985e-07, No Iterations 6
Time = 0.024

DILUPBiCG:  Solving for T, Initial residual = 0.00245431, Final residual = 5.13967e-07, No Iterations 6
Time = 0.0241

DILUPBiCG:  Solving for T, Initial residual = 0.0024588, Final residual = 5.0918e-07, No Iterations 6
Time = 0.0242

DILUPBiCG:  Solving for T, Initial residual = 0.00246337, Final residual = 5.04517e-07, No Iterations 6
Time = 0.0243

DILUPBiCG:  Solving for T, Initial residual = 0.00246802, Final residual = 5.00053e-07, No Iterations 6
Time = 0.0244

DILUPBiCG:  Solving for T, Initial residual = 0.00247272, Final residual = 4.95731e-07, No Iterations 6
Time = 0.0245

DILUPBiCG:  Solving for T, Initial residual = 0.00247751, Final residual = 4.91683e-07, No Iterations 6
Time = 0.0246

DILUPBiCG:  Solving for T, Initial residual = 0.00248238, Final residual = 4.87954e-07, No Iterations 6
Time = 0.0247

DILUPBiCG:  Solving for T, Initial residual = 0.00248731, Final residual = 4.84267e-07, No Iterations 6
Time = 0.0248

DILUPBiCG:  Solving for T, Initial residual = 0.00249231, Final residual = 4.80766e-07, No Iterations 6
Time = 0.0249

DILUPBiCG:  Solving for T, Initial residual = 0.0024974, Final residual = 4.77408e-07, No Iterations 6
Time = 0.025

DILUPBiCG:  Solving for T, Initial residual = 0.00250256, Final residual = 4.74175e-07, No Iterations 6
Time = 0.0251

DILUPBiCG:  Solving for T, Initial residual = 0.00250778, Final residual = 4.71038e-07, No Iterations 6
Time = 0.0252

DILUPBiCG:  Solving for T, Initial residual = 0.00251307, Final residual = 4.68113e-07, No Iterations 6
Time = 0.0253

DILUPBiCG:  Solving for T, Initial residual = 0.00251846, Final residual = 4.65352e-07, No Iterations 6
Time = 0.0254

DILUPBiCG:  Solving for T, Initial residual = 0.00252391, Final residual = 4.6273e-07, No Iterations 6
Time = 0.0255

DILUPBiCG:  Solving for T, Initial residual = 0.00252942, Final residual = 4.60277e-07, No Iterations 6
Time = 0.0256

DILUPBiCG:  Solving for T, Initial residual = 0.00253501, Final residual = 4.57908e-07, No Iterations 6
Time = 0.0257

DILUPBiCG:  Solving for T, Initial residual = 0.00254068, Final residual = 4.55729e-07, No Iterations 6
Time = 0.0258

DILUPBiCG:  Solving for T, Initial residual = 0.00254642, Final residual = 4.53677e-07, No Iterations 6
Time = 0.0259

DILUPBiCG:  Solving for T, Initial residual = 0.00255222, Final residual = 4.51732e-07, No Iterations 6
Time = 0.026

DILUPBiCG:  Solving for T, Initial residual = 0.0025581, Final residual = 4.49971e-07, No Iterations 6
Time = 0.0261

DILUPBiCG:  Solving for T, Initial residual = 0.00256406, Final residual = 4.48442e-07, No Iterations 6
Time = 0.0262

DILUPBiCG:  Solving for T, Initial residual = 0.00257007, Final residual = 4.47029e-07, No Iterations 6
Time = 0.0263

DILUPBiCG:  Solving for T, Initial residual = 0.00257615, Final residual = 4.45768e-07, No Iterations 6
Time = 0.0264

DILUPBiCG:  Solving for T, Initial residual = 0.00258232, Final residual = 4.44601e-07, No Iterations 6
Time = 0.0265

DILUPBiCG:  Solving for T, Initial residual = 0.00258855, Final residual = 4.43785e-07, No Iterations 6
Time = 0.0266

DILUPBiCG:  Solving for T, Initial residual = 0.00259484, Final residual = 4.43006e-07, No Iterations 6
Time = 0.0267

DILUPBiCG:  Solving for T, Initial residual = 0.00260119, Final residual = 4.42388e-07, No Iterations 6
Time = 0.0268

DILUPBiCG:  Solving for T, Initial residual = 0.00260762, Final residual = 4.41952e-07, No Iterations 6
Time = 0.0269

DILUPBiCG:  Solving for T, Initial residual = 0.00261411, Final residual = 4.4154e-07, No Iterations 6
Time = 0.027

DILUPBiCG:  Solving for T, Initial residual = 0.00262066, Final residual = 4.41396e-07, No Iterations 6
Time = 0.0271

DILUPBiCG:  Solving for T, Initial residual = 0.00262727, Final residual = 4.41354e-07, No Iterations 6
Time = 0.0272

DILUPBiCG:  Solving for T, Initial residual = 0.00263394, Final residual = 4.41465e-07, No Iterations 6
Time = 0.0273

DILUPBiCG:  Solving for T, Initial residual = 0.00264068, Final residual = 4.41667e-07, No Iterations 6
Time = 0.0274

DILUPBiCG:  Solving for T, Initial residual = 0.00264747, Final residual = 4.41997e-07, No Iterations 6
Time = 0.0275

DILUPBiCG:  Solving for T, Initial residual = 0.0026543, Final residual = 4.42537e-07, No Iterations 6
Time = 0.0276

DILUPBiCG:  Solving for T, Initial residual = 0.0026612, Final residual = 4.4314e-07, No Iterations 6
Time = 0.0277

DILUPBiCG:  Solving for T, Initial residual = 0.00266815, Final residual = 4.43932e-07, No Iterations 6
Time = 0.0278

DILUPBiCG:  Solving for T, Initial residual = 0.00267515, Final residual = 4.44723e-07, No Iterations 6
Time = 0.0279

DILUPBiCG:  Solving for T, Initial residual = 0.00268219, Final residual = 4.45745e-07, No Iterations 6
Time = 0.028

DILUPBiCG:  Solving for T, Initial residual = 0.00268927, Final residual = 4.46957e-07, No Iterations 6
Time = 0.0281

DILUPBiCG:  Solving for T, Initial residual = 0.00269641, Final residual = 4.48274e-07, No Iterations 6
Time = 0.0282

DILUPBiCG:  Solving for T, Initial residual = 0.00270358, Final residual = 4.49732e-07, No Iterations 6
Time = 0.0283

DILUPBiCG:  Solving for T, Initial residual = 0.00271078, Final residual = 4.51298e-07, No Iterations 6
Time = 0.0284

DILUPBiCG:  Solving for T, Initial residual = 0.00271801, Final residual = 4.53043e-07, No Iterations 6
Time = 0.0285

DILUPBiCG:  Solving for T, Initial residual = 0.00272528, Final residual = 4.55029e-07, No Iterations 6
Time = 0.0286

DILUPBiCG:  Solving for T, Initial residual = 0.00273258, Final residual = 4.57171e-07, No Iterations 6
Time = 0.0287

DILUPBiCG:  Solving for T, Initial residual = 0.00273991, Final residual = 4.59378e-07, No Iterations 6
Time = 0.0288

DILUPBiCG:  Solving for T, Initial residual = 0.00274724, Final residual = 4.61537e-07, No Iterations 6
Time = 0.0289

DILUPBiCG:  Solving for T, Initial residual = 0.00275459, Final residual = 4.64224e-07, No Iterations 6
Time = 0.029

DILUPBiCG:  Solving for T, Initial residual = 0.00276195, Final residual = 4.67086e-07, No Iterations 6
Time = 0.0291

DILUPBiCG:  Solving for T, Initial residual = 0.00276931, Final residual = 4.70077e-07, No Iterations 6
Time = 0.0292

DILUPBiCG:  Solving for T, Initial residual = 0.00277665, Final residual = 4.73432e-07, No Iterations 6
Time = 0.0293

DILUPBiCG:  Solving for T, Initial residual = 0.002784, Final residual = 4.77133e-07, No Iterations 6
Time = 0.0294

DILUPBiCG:  Solving for T, Initial residual = 0.00279135, Final residual = 4.80967e-07, No Iterations 6
Time = 0.0295

DILUPBiCG:  Solving for T, Initial residual = 0.00279871, Final residual = 4.85437e-07, No Iterations 6
Time = 0.0296

DILUPBiCG:  Solving for T, Initial residual = 0.00280604, Final residual = 4.90564e-07, No Iterations 6
Time = 0.0297

DILUPBiCG:  Solving for T, Initial residual = 0.00281333, Final residual = 4.9654e-07, No Iterations 6
Time = 0.0298

DILUPBiCG:  Solving for T, Initial residual = 0.0028206, Final residual = 5.0346e-07, No Iterations 6
Time = 0.0299

DILUPBiCG:  Solving for T, Initial residual = 0.00282785, Final residual = 5.11395e-07, No Iterations 6
Time = 0.03

DILUPBiCG:  Solving for T, Initial residual = 0.00283507, Final residual = 5.20241e-07, No Iterations 6
Time = 0.0301

DILUPBiCG:  Solving for T, Initial residual = 0.00284223, Final residual = 5.30267e-07, No Iterations 6
Time = 0.0302

DILUPBiCG:  Solving for T, Initial residual = 0.00284933, Final residual = 5.42083e-07, No Iterations 6
Time = 0.0303

DILUPBiCG:  Solving for T, Initial residual = 0.00285639, Final residual = 5.55516e-07, No Iterations 6
Time = 0.0304

DILUPBiCG:  Solving for T, Initial residual = 0.00286339, Final residual = 5.71016e-07, No Iterations 6
Time = 0.0305

DILUPBiCG:  Solving for T, Initial residual = 0.00287033, Final residual = 5.88457e-07, No Iterations 6
Time = 0.0306

DILUPBiCG:  Solving for T, Initial residual = 0.00287719, Final residual = 6.08264e-07, No Iterations 6
Time = 0.0307

DILUPBiCG:  Solving for T, Initial residual = 0.00288396, Final residual = 6.31332e-07, No Iterations 6
Time = 0.0308

DILUPBiCG:  Solving for T, Initial residual = 0.00289065, Final residual = 6.57105e-07, No Iterations 6
Time = 0.0309

DILUPBiCG:  Solving for T, Initial residual = 0.00289725, Final residual = 6.86492e-07, No Iterations 6
Time = 0.031

DILUPBiCG:  Solving for T, Initial residual = 0.00290376, Final residual = 7.19763e-07, No Iterations 6
Time = 0.0311

DILUPBiCG:  Solving for T, Initial residual = 0.00291016, Final residual = 7.57479e-07, No Iterations 6
Time = 0.0312

DILUPBiCG:  Solving for T, Initial residual = 0.00291645, Final residual = 8.00673e-07, No Iterations 6
Time = 0.0313

DILUPBiCG:  Solving for T, Initial residual = 0.00292261, Final residual = 8.50115e-07, No Iterations 6
Time = 0.0314

DILUPBiCG:  Solving for T, Initial residual = 0.00292866, Final residual = 9.05806e-07, No Iterations 6
Time = 0.0315

DILUPBiCG:  Solving for T, Initial residual = 0.00293458, Final residual = 9.70535e-07, No Iterations 6
Time = 0.0316

DILUPBiCG:  Solving for T, Initial residual = 0.00294036, Final residual = 2.00473e-07, No Iterations 7
Time = 0.0317

DILUPBiCG:  Solving for T, Initial residual = 0.00294599, Final residual = 1.92255e-07, No Iterations 7
Time = 0.0318

DILUPBiCG:  Solving for T, Initial residual = 0.00295147, Final residual = 1.86393e-07, No Iterations 7
Time = 0.0319

DILUPBiCG:  Solving for T, Initial residual = 0.00295679, Final residual = 1.8233e-07, No Iterations 7
Time = 0.032

DILUPBiCG:  Solving for T, Initial residual = 0.00296194, Final residual = 1.79666e-07, No Iterations 7
Time = 0.0321

DILUPBiCG:  Solving for T, Initial residual = 0.00296693, Final residual = 1.78261e-07, No Iterations 7
Time = 0.0322

DILUPBiCG:  Solving for T, Initial residual = 0.00297175, Final residual = 1.77715e-07, No Iterations 7
Time = 0.0323

DILUPBiCG:  Solving for T, Initial residual = 0.00297638, Final residual = 1.7777e-07, No Iterations 7
Time = 0.0324

DILUPBiCG:  Solving for T, Initial residual = 0.00298082, Final residual = 1.78465e-07, No Iterations 7
Time = 0.0325

DILUPBiCG:  Solving for T, Initial residual = 0.00298505, Final residual = 1.79651e-07, No Iterations 7
Time = 0.0326

DILUPBiCG:  Solving for T, Initial residual = 0.00298909, Final residual = 1.81371e-07, No Iterations 7
Time = 0.0327

DILUPBiCG:  Solving for T, Initial residual = 0.00299293, Final residual = 9.95646e-07, No Iterations 5
Time = 0.0328

DILUPBiCG:  Solving for T, Initial residual = 0.00299657, Final residual = 9.82386e-07, No Iterations 5
Time = 0.0329

DILUPBiCG:  Solving for T, Initial residual = 0.00299998, Final residual = 9.70559e-07, No Iterations 5
Time = 0.033

DILUPBiCG:  Solving for T, Initial residual = 0.00300315, Final residual = 9.59505e-07, No Iterations 5
Time = 0.0331

DILUPBiCG:  Solving for T, Initial residual = 0.00300608, Final residual = 9.49003e-07, No Iterations 5
Time = 0.0332

DILUPBiCG:  Solving for T, Initial residual = 0.00300878, Final residual = 9.39166e-07, No Iterations 5
Time = 0.0333

DILUPBiCG:  Solving for T, Initial residual = 0.00301126, Final residual = 9.30259e-07, No Iterations 5
Time = 0.0334

DILUPBiCG:  Solving for T, Initial residual = 0.00301352, Final residual = 9.22485e-07, No Iterations 5
Time = 0.0335

DILUPBiCG:  Solving for T, Initial residual = 0.00301551, Final residual = 9.15532e-07, No Iterations 5
Time = 0.0336

DILUPBiCG:  Solving for T, Initial residual = 0.00301724, Final residual = 9.09366e-07, No Iterations 5
Time = 0.0337

DILUPBiCG:  Solving for T, Initial residual = 0.00301869, Final residual = 9.04217e-07, No Iterations 5
Time = 0.0338

DILUPBiCG:  Solving for T, Initial residual = 0.00301989, Final residual = 9.0014e-07, No Iterations 5
Time = 0.0339

DILUPBiCG:  Solving for T, Initial residual = 0.00302085, Final residual = 8.96618e-07, No Iterations 5
Time = 0.034

DILUPBiCG:  Solving for T, Initial residual = 0.00302157, Final residual = 8.94438e-07, No Iterations 5
Time = 0.0341

DILUPBiCG:  Solving for T, Initial residual = 0.00302202, Final residual = 8.9297e-07, No Iterations 5
Time = 0.0342

DILUPBiCG:  Solving for T, Initial residual = 0.00302218, Final residual = 8.91958e-07, No Iterations 5
Time = 0.0343

DILUPBiCG:  Solving for T, Initial residual = 0.00302204, Final residual = 8.91735e-07, No Iterations 5
Time = 0.0344

DILUPBiCG:  Solving for T, Initial residual = 0.00302163, Final residual = 8.92436e-07, No Iterations 5
Time = 0.0345

DILUPBiCG:  Solving for T, Initial residual = 0.00302095, Final residual = 8.94165e-07, No Iterations 5
Time = 0.0346

DILUPBiCG:  Solving for T, Initial residual = 0.00302003, Final residual = 8.96589e-07, No Iterations 5
Time = 0.0347

DILUPBiCG:  Solving for T, Initial residual = 0.00301884, Final residual = 9.00138e-07, No Iterations 5
Time = 0.0348

DILUPBiCG:  Solving for T, Initial residual = 0.00301739, Final residual = 9.0471e-07, No Iterations 5
Time = 0.0349

DILUPBiCG:  Solving for T, Initial residual = 0.00301563, Final residual = 9.09957e-07, No Iterations 5
Time = 0.035

DILUPBiCG:  Solving for T, Initial residual = 0.00301356, Final residual = 9.17002e-07, No Iterations 5
Time = 0.0351

DILUPBiCG:  Solving for T, Initial residual = 0.0030112, Final residual = 9.25179e-07, No Iterations 5
Time = 0.0352

DILUPBiCG:  Solving for T, Initial residual = 0.0030086, Final residual = 9.34868e-07, No Iterations 5
Time = 0.0353

DILUPBiCG:  Solving for T, Initial residual = 0.00300574, Final residual = 9.45326e-07, No Iterations 5
Time = 0.0354

DILUPBiCG:  Solving for T, Initial residual = 0.00300263, Final residual = 9.56844e-07, No Iterations 5
Time = 0.0355

DILUPBiCG:  Solving for T, Initial residual = 0.00299926, Final residual = 9.69027e-07, No Iterations 5
Time = 0.0356

DILUPBiCG:  Solving for T, Initial residual = 0.00299561, Final residual = 9.82702e-07, No Iterations 5
Time = 0.0357

DILUPBiCG:  Solving for T, Initial residual = 0.00299165, Final residual = 9.98209e-07, No Iterations 5
Time = 0.0358

DILUPBiCG:  Solving for T, Initial residual = 0.00298741, Final residual = 3.49114e-07, No Iterations 7
Time = 0.0359

DILUPBiCG:  Solving for T, Initial residual = 0.00298293, Final residual = 3.57841e-07, No Iterations 7
Time = 0.036

DILUPBiCG:  Solving for T, Initial residual = 0.00297821, Final residual = 3.65156e-07, No Iterations 7
Time = 0.0361

DILUPBiCG:  Solving for T, Initial residual = 0.00297326, Final residual = 3.72679e-07, No Iterations 7
Time = 0.0362

DILUPBiCG:  Solving for T, Initial residual = 0.00296808, Final residual = 3.80205e-07, No Iterations 7
Time = 0.0363

DILUPBiCG:  Solving for T, Initial residual = 0.00296266, Final residual = 3.87239e-07, No Iterations 7
Time = 0.0364

DILUPBiCG:  Solving for T, Initial residual = 0.00295697, Final residual = 3.93652e-07, No Iterations 7
Time = 0.0365

DILUPBiCG:  Solving for T, Initial residual = 0.00295102, Final residual = 4.00695e-07, No Iterations 7
Time = 0.0366

DILUPBiCG:  Solving for T, Initial residual = 0.00294484, Final residual = 4.05893e-07, No Iterations 7
Time = 0.0367

DILUPBiCG:  Solving for T, Initial residual = 0.00293845, Final residual = 4.12024e-07, No Iterations 7
Time = 0.0368

DILUPBiCG:  Solving for T, Initial residual = 0.00293185, Final residual = 4.18476e-07, No Iterations 7
Time = 0.0369

DILUPBiCG:  Solving for T, Initial residual = 0.00292505, Final residual = 4.23887e-07, No Iterations 7
Time = 0.037

DILUPBiCG:  Solving for T, Initial residual = 0.00291807, Final residual = 4.29185e-07, No Iterations 7
Time = 0.0371

DILUPBiCG:  Solving for T, Initial residual = 0.00291089, Final residual = 4.34319e-07, No Iterations 7
Time = 0.0372

DILUPBiCG:  Solving for T, Initial residual = 0.00290348, Final residual = 4.39288e-07, No Iterations 7
Time = 0.0373

DILUPBiCG:  Solving for T, Initial residual = 0.00289587, Final residual = 4.4348e-07, No Iterations 7
Time = 0.0374

DILUPBiCG:  Solving for T, Initial residual = 0.00288808, Final residual = 4.4788e-07, No Iterations 7
Time = 0.0375

DILUPBiCG:  Solving for T, Initial residual = 0.00288013, Final residual = 4.52668e-07, No Iterations 7
Time = 0.0376

DILUPBiCG:  Solving for T, Initial residual = 0.00287202, Final residual = 4.56935e-07, No Iterations 7
Time = 0.0377

DILUPBiCG:  Solving for T, Initial residual = 0.00286376, Final residual = 4.60186e-07, No Iterations 7
Time = 0.0378

DILUPBiCG:  Solving for T, Initial residual = 0.00285536, Final residual = 4.63613e-07, No Iterations 7
Time = 0.0379

DILUPBiCG:  Solving for T, Initial residual = 0.00284682, Final residual = 4.6739e-07, No Iterations 7
Time = 0.038

DILUPBiCG:  Solving for T, Initial residual = 0.00283813, Final residual = 4.70168e-07, No Iterations 7
Time = 0.0381

DILUPBiCG:  Solving for T, Initial residual = 0.00282929, Final residual = 4.73648e-07, No Iterations 7
Time = 0.0382

DILUPBiCG:  Solving for T, Initial residual = 0.00282031, Final residual = 4.76981e-07, No Iterations 7
Time = 0.0383

DILUPBiCG:  Solving for T, Initial residual = 0.00281122, Final residual = 4.80418e-07, No Iterations 7
Time = 0.0384

DILUPBiCG:  Solving for T, Initial residual = 0.00280203, Final residual = 4.83383e-07, No Iterations 7
Time = 0.0385

DILUPBiCG:  Solving for T, Initial residual = 0.00279276, Final residual = 4.86861e-07, No Iterations 7
Time = 0.0386

DILUPBiCG:  Solving for T, Initial residual = 0.00278341, Final residual = 4.89241e-07, No Iterations 7
Time = 0.0387

DILUPBiCG:  Solving for T, Initial residual = 0.00277398, Final residual = 4.91219e-07, No Iterations 7
Time = 0.0388

DILUPBiCG:  Solving for T, Initial residual = 0.00276449, Final residual = 4.94379e-07, No Iterations 7
Time = 0.0389

DILUPBiCG:  Solving for T, Initial residual = 0.00275491, Final residual = 4.97259e-07, No Iterations 7
Time = 0.039

DILUPBiCG:  Solving for T, Initial residual = 0.00274526, Final residual = 5.00306e-07, No Iterations 7
Time = 0.0391

DILUPBiCG:  Solving for T, Initial residual = 0.00273554, Final residual = 5.02706e-07, No Iterations 7
Time = 0.0392

DILUPBiCG:  Solving for T, Initial residual = 0.00272577, Final residual = 5.05411e-07, No Iterations 7
Time = 0.0393

DILUPBiCG:  Solving for T, Initial residual = 0.00271597, Final residual = 5.08378e-07, No Iterations 7
Time = 0.0394

DILUPBiCG:  Solving for T, Initial residual = 0.00270615, Final residual = 5.11266e-07, No Iterations 7
Time = 0.0395

DILUPBiCG:  Solving for T, Initial residual = 0.0026963, Final residual = 5.12038e-07, No Iterations 7
Time = 0.0396

DILUPBiCG:  Solving for T, Initial residual = 0.00268645, Final residual = 5.13458e-07, No Iterations 7
Time = 0.0397

DILUPBiCG:  Solving for T, Initial residual = 0.0026766, Final residual = 5.16378e-07, No Iterations 7
Time = 0.0398

DILUPBiCG:  Solving for T, Initial residual = 0.00266675, Final residual = 5.19377e-07, No Iterations 7
Time = 0.0399

DILUPBiCG:  Solving for T, Initial residual = 0.00265688, Final residual = 5.21616e-07, No Iterations 7
Time = 0.04

DILUPBiCG:  Solving for T, Initial residual = 0.00264701, Final residual = 5.2471e-07, No Iterations 7
Time = 0.0401

DILUPBiCG:  Solving for T, Initial residual = 0.00263714, Final residual = 5.27535e-07, No Iterations 7
Time = 0.0402

DILUPBiCG:  Solving for T, Initial residual = 0.0026273, Final residual = 5.30177e-07, No Iterations 7
Time = 0.0403

DILUPBiCG:  Solving for T, Initial residual = 0.00261748, Final residual = 5.33283e-07, No Iterations 7
Time = 0.0404

DILUPBiCG:  Solving for T, Initial residual = 0.0026077, Final residual = 5.36192e-07, No Iterations 7
Time = 0.0405

DILUPBiCG:  Solving for T, Initial residual = 0.00259796, Final residual = 5.40005e-07, No Iterations 7
Time = 0.0406

DILUPBiCG:  Solving for T, Initial residual = 0.00258827, Final residual = 5.42934e-07, No Iterations 7
Time = 0.0407

DILUPBiCG:  Solving for T, Initial residual = 0.00257862, Final residual = 5.4646e-07, No Iterations 7
Time = 0.0408

DILUPBiCG:  Solving for T, Initial residual = 0.00256904, Final residual = 5.49161e-07, No Iterations 7
Time = 0.0409

DILUPBiCG:  Solving for T, Initial residual = 0.00255952, Final residual = 5.53181e-07, No Iterations 7
Time = 0.041

DILUPBiCG:  Solving for T, Initial residual = 0.00255004, Final residual = 5.57329e-07, No Iterations 7
Time = 0.0411

DILUPBiCG:  Solving for T, Initial residual = 0.00254062, Final residual = 5.60902e-07, No Iterations 7
Time = 0.0412

DILUPBiCG:  Solving for T, Initial residual = 0.00253127, Final residual = 5.64939e-07, No Iterations 7
Time = 0.0413

DILUPBiCG:  Solving for T, Initial residual = 0.00252199, Final residual = 5.6949e-07, No Iterations 7
Time = 0.0414

DILUPBiCG:  Solving for T, Initial residual = 0.00251278, Final residual = 5.7387e-07, No Iterations 7
Time = 0.0415

DILUPBiCG:  Solving for T, Initial residual = 0.00250367, Final residual = 5.78024e-07, No Iterations 7
Time = 0.0416

DILUPBiCG:  Solving for T, Initial residual = 0.00249464, Final residual = 5.82177e-07, No Iterations 7
Time = 0.0417

DILUPBiCG:  Solving for T, Initial residual = 0.0024857, Final residual = 5.87011e-07, No Iterations 7
Time = 0.0418

DILUPBiCG:  Solving for T, Initial residual = 0.00247685, Final residual = 5.91752e-07, No Iterations 7
Time = 0.0419

DILUPBiCG:  Solving for T, Initial residual = 0.0024681, Final residual = 5.96913e-07, No Iterations 7
Time = 0.042

DILUPBiCG:  Solving for T, Initial residual = 0.00245945, Final residual = 6.02802e-07, No Iterations 7
Time = 0.0421

DILUPBiCG:  Solving for T, Initial residual = 0.00245089, Final residual = 6.08381e-07, No Iterations 7
Time = 0.0422

DILUPBiCG:  Solving for T, Initial residual = 0.00244242, Final residual = 6.14733e-07, No Iterations 7
Time = 0.0423

DILUPBiCG:  Solving for T, Initial residual = 0.00243405, Final residual = 6.2059e-07, No Iterations 7
Time = 0.0424

DILUPBiCG:  Solving for T, Initial residual = 0.00242577, Final residual = 6.27289e-07, No Iterations 7
Time = 0.0425

DILUPBiCG:  Solving for T, Initial residual = 0.00241761, Final residual = 6.33818e-07, No Iterations 7
Time = 0.0426

DILUPBiCG:  Solving for T, Initial residual = 0.00240955, Final residual = 6.40558e-07, No Iterations 7
Time = 0.0427

DILUPBiCG:  Solving for T, Initial residual = 0.0024016, Final residual = 6.46845e-07, No Iterations 7
Time = 0.0428

DILUPBiCG:  Solving for T, Initial residual = 0.00239376, Final residual = 6.51635e-07, No Iterations 7
Time = 0.0429

DILUPBiCG:  Solving for T, Initial residual = 0.00238603, Final residual = 6.59078e-07, No Iterations 7
Time = 0.043

DILUPBiCG:  Solving for T, Initial residual = 0.00237842, Final residual = 6.66419e-07, No Iterations 7
Time = 0.0431

DILUPBiCG:  Solving for T, Initial residual = 0.00237092, Final residual = 6.74734e-07, No Iterations 7
Time = 0.0432

DILUPBiCG:  Solving for T, Initial residual = 0.00236354, Final residual = 6.83396e-07, No Iterations 7
Time = 0.0433

DILUPBiCG:  Solving for T, Initial residual = 0.00235627, Final residual = 6.92866e-07, No Iterations 7
Time = 0.0434

DILUPBiCG:  Solving for T, Initial residual = 0.00234911, Final residual = 7.03262e-07, No Iterations 7
Time = 0.0435

DILUPBiCG:  Solving for T, Initial residual = 0.00234207, Final residual = 7.00751e-07, No Iterations 7
Time = 0.0436

DILUPBiCG:  Solving for T, Initial residual = 0.00233513, Final residual = 7.10526e-07, No Iterations 7
Time = 0.0437

DILUPBiCG:  Solving for T, Initial residual = 0.0023283, Final residual = 7.2053e-07, No Iterations 7
Time = 0.0438

DILUPBiCG:  Solving for T, Initial residual = 0.00232158, Final residual = 7.12302e-07, No Iterations 7
Time = 0.0439

DILUPBiCG:  Solving for T, Initial residual = 0.00231497, Final residual = 7.23143e-07, No Iterations 7
Time = 0.044

DILUPBiCG:  Solving for T, Initial residual = 0.00230848, Final residual = 7.32718e-07, No Iterations 7
Time = 0.0441

DILUPBiCG:  Solving for T, Initial residual = 0.0023021, Final residual = 7.43698e-07, No Iterations 7
Time = 0.0442

DILUPBiCG:  Solving for T, Initial residual = 0.00229583, Final residual = 7.30504e-07, No Iterations 7
Time = 0.0443

DILUPBiCG:  Solving for T, Initial residual = 0.00228968, Final residual = 7.40337e-07, No Iterations 7
Time = 0.0444

DILUPBiCG:  Solving for T, Initial residual = 0.00228363, Final residual = 7.51054e-07, No Iterations 7
Time = 0.0445

DILUPBiCG:  Solving for T, Initial residual = 0.0022777, Final residual = 7.6211e-07, No Iterations 7
Time = 0.0446

DILUPBiCG:  Solving for T, Initial residual = 0.00227188, Final residual = 7.44907e-07, No Iterations 7
Time = 0.0447

DILUPBiCG:  Solving for T, Initial residual = 0.00226616, Final residual = 7.56009e-07, No Iterations 7
Time = 0.0448

DILUPBiCG:  Solving for T, Initial residual = 0.00226055, Final residual = 7.66907e-07, No Iterations 7
Time = 0.0449

DILUPBiCG:  Solving for T, Initial residual = 0.00225505, Final residual = 7.7767e-07, No Iterations 7
Time = 0.045

DILUPBiCG:  Solving for T, Initial residual = 0.00224965, Final residual = 7.90471e-07, No Iterations 7
Time = 0.0451

DILUPBiCG:  Solving for T, Initial residual = 0.00224435, Final residual = 7.66927e-07, No Iterations 7
Time = 0.0452

DILUPBiCG:  Solving for T, Initial residual = 0.00223915, Final residual = 7.77411e-07, No Iterations 7
Time = 0.0453

DILUPBiCG:  Solving for T, Initial residual = 0.00223405, Final residual = 7.88068e-07, No Iterations 7
Time = 0.0454

DILUPBiCG:  Solving for T, Initial residual = 0.00222905, Final residual = 7.98813e-07, No Iterations 7
Time = 0.0455

DILUPBiCG:  Solving for T, Initial residual = 0.00222414, Final residual = 8.11311e-07, No Iterations 7
Time = 0.0456

DILUPBiCG:  Solving for T, Initial residual = 0.00221933, Final residual = 8.23827e-07, No Iterations 7
Time = 0.0457

DILUPBiCG:  Solving for T, Initial residual = 0.00221461, Final residual = 7.9325e-07, No Iterations 7
Time = 0.0458

DILUPBiCG:  Solving for T, Initial residual = 0.00220999, Final residual = 8.03093e-07, No Iterations 7
Time = 0.0459

DILUPBiCG:  Solving for T, Initial residual = 0.00220546, Final residual = 8.1436e-07, No Iterations 7
Time = 0.046

DILUPBiCG:  Solving for T, Initial residual = 0.00220101, Final residual = 8.26354e-07, No Iterations 7
Time = 0.0461

DILUPBiCG:  Solving for T, Initial residual = 0.00219666, Final residual = 8.38169e-07, No Iterations 7
Time = 0.0462

DILUPBiCG:  Solving for T, Initial residual = 0.00219239, Final residual = 7.99719e-07, No Iterations 7
Time = 0.0463

DILUPBiCG:  Solving for T, Initial residual = 0.00218821, Final residual = 8.09681e-07, No Iterations 7
Time = 0.0464

DILUPBiCG:  Solving for T, Initial residual = 0.00218411, Final residual = 8.19667e-07, No Iterations 7
Time = 0.0465

DILUPBiCG:  Solving for T, Initial residual = 0.0021801, Final residual = 8.29297e-07, No Iterations 7
Time = 0.0466

DILUPBiCG:  Solving for T, Initial residual = 0.00217617, Final residual = 8.40181e-07, No Iterations 7
Time = 0.0467

DILUPBiCG:  Solving for T, Initial residual = 0.00217231, Final residual = 8.51088e-07, No Iterations 7
Time = 0.0468

DILUPBiCG:  Solving for T, Initial residual = 0.00216853, Final residual = 8.01955e-07, No Iterations 7
Time = 0.0469

DILUPBiCG:  Solving for T, Initial residual = 0.00216483, Final residual = 8.11985e-07, No Iterations 7
Time = 0.047

DILUPBiCG:  Solving for T, Initial residual = 0.00216119, Final residual = 8.23744e-07, No Iterations 7
Time = 0.0471

DILUPBiCG:  Solving for T, Initial residual = 0.00215763, Final residual = 8.37688e-07, No Iterations 7
Time = 0.0472

DILUPBiCG:  Solving for T, Initial residual = 0.00215414, Final residual = 8.6505e-07, No Iterations 7
Time = 0.0473

DILUPBiCG:  Solving for T, Initial residual = 0.00215071, Final residual = 8.80446e-07, No Iterations 7
Time = 0.0474

DILUPBiCG:  Solving for T, Initial residual = 0.00214735, Final residual = 8.3717e-07, No Iterations 7
Time = 0.0475

DILUPBiCG:  Solving for T, Initial residual = 0.00214406, Final residual = 8.52026e-07, No Iterations 7
Time = 0.0476

DILUPBiCG:  Solving for T, Initial residual = 0.00214084, Final residual = 8.67274e-07, No Iterations 7
Time = 0.0477

DILUPBiCG:  Solving for T, Initial residual = 0.00213768, Final residual = 9.14649e-07, No Iterations 7
Time = 0.0478

DILUPBiCG:  Solving for T, Initial residual = 0.00213458, Final residual = 9.34551e-07, No Iterations 7
Time = 0.0479

DILUPBiCG:  Solving for T, Initial residual = 0.00213154, Final residual = 9.53112e-07, No Iterations 7
Time = 0.048

DILUPBiCG:  Solving for T, Initial residual = 0.00212856, Final residual = 9.03861e-07, No Iterations 7
Time = 0.0481

DILUPBiCG:  Solving for T, Initial residual = 0.00212564, Final residual = 9.20332e-07, No Iterations 7
Time = 0.0482

DILUPBiCG:  Solving for T, Initial residual = 0.00212277, Final residual = 9.34602e-07, No Iterations 7
Time = 0.0483

DILUPBiCG:  Solving for T, Initial residual = 0.00211997, Final residual = 9.96757e-07, No Iterations 7
Time = 0.0484

DILUPBiCG:  Solving for T, Initial residual = 0.00211721, Final residual = 6.12847e-08, No Iterations 8
Time = 0.0485

DILUPBiCG:  Solving for T, Initial residual = 0.00211451, Final residual = 6.11041e-08, No Iterations 8
Time = 0.0486

DILUPBiCG:  Solving for T, Initial residual = 0.00211187, Final residual = 6.34738e-08, No Iterations 8
Time = 0.0487

DILUPBiCG:  Solving for T, Initial residual = 0.00210927, Final residual = 6.34324e-08, No Iterations 8
Time = 0.0488

DILUPBiCG:  Solving for T, Initial residual = 0.00210673, Final residual = 6.35513e-08, No Iterations 8
Time = 0.0489

DILUPBiCG:  Solving for T, Initial residual = 0.00210424, Final residual = 6.37226e-08, No Iterations 8
Time = 0.049

DILUPBiCG:  Solving for T, Initial residual = 0.00210179, Final residual = 6.17522e-08, No Iterations 8
Time = 0.0491

DILUPBiCG:  Solving for T, Initial residual = 0.00209939, Final residual = 6.16898e-08, No Iterations 8
Time = 0.0492

DILUPBiCG:  Solving for T, Initial residual = 0.00209704, Final residual = 6.16649e-08, No Iterations 8
Time = 0.0493

DILUPBiCG:  Solving for T, Initial residual = 0.00209473, Final residual = 6.16229e-08, No Iterations 8
Time = 0.0494

DILUPBiCG:  Solving for T, Initial residual = 0.00209247, Final residual = 6.44755e-08, No Iterations 8
Time = 0.0495

DILUPBiCG:  Solving for T, Initial residual = 0.00209024, Final residual = 6.44883e-08, No Iterations 8
Time = 0.0496

DILUPBiCG:  Solving for T, Initial residual = 0.00208806, Final residual = 6.46827e-08, No Iterations 8
Time = 0.0497

DILUPBiCG:  Solving for T, Initial residual = 0.00208592, Final residual = 6.24154e-08, No Iterations 8
Time = 0.0498

DILUPBiCG:  Solving for T, Initial residual = 0.00208382, Final residual = 6.2013e-08, No Iterations 8
Time = 0.0499

DILUPBiCG:  Solving for T, Initial residual = 0.00208176, Final residual = 6.20898e-08, No Iterations 8
Time = 0.05

DILUPBiCG:  Solving for T, Initial residual = 0.00207974, Final residual = 6.22536e-08, No Iterations 8
Time = 0.0501

DILUPBiCG:  Solving for T, Initial residual = 0.00207775, Final residual = 6.55911e-08, No Iterations 8
Time = 0.0502

DILUPBiCG:  Solving for T, Initial residual = 0.0020758, Final residual = 6.50058e-08, No Iterations 8
Time = 0.0503

DILUPBiCG:  Solving for T, Initial residual = 0.00207388, Final residual = 6.5093e-08, No Iterations 8
Time = 0.0504

DILUPBiCG:  Solving for T, Initial residual = 0.002072, Final residual = 6.54067e-08, No Iterations 8
Time = 0.0505

DILUPBiCG:  Solving for T, Initial residual = 0.00207015, Final residual = 6.28086e-08, No Iterations 8
Time = 0.0506

DILUPBiCG:  Solving for T, Initial residual = 0.00206833, Final residual = 6.17851e-08, No Iterations 8
Time = 0.0507

DILUPBiCG:  Solving for T, Initial residual = 0.00206654, Final residual = 6.1952e-08, No Iterations 8
Time = 0.0508

DILUPBiCG:  Solving for T, Initial residual = 0.00206479, Final residual = 6.19361e-08, No Iterations 8
Time = 0.0509

DILUPBiCG:  Solving for T, Initial residual = 0.00206306, Final residual = 6.55376e-08, No Iterations 8
Time = 0.051

DILUPBiCG:  Solving for T, Initial residual = 0.00206137, Final residual = 6.55665e-08, No Iterations 8
Time = 0.0511

DILUPBiCG:  Solving for T, Initial residual = 0.0020597, Final residual = 6.5571e-08, No Iterations 8
Time = 0.0512

DILUPBiCG:  Solving for T, Initial residual = 0.00205806, Final residual = 6.39979e-08, No Iterations 8
Time = 0.0513

DILUPBiCG:  Solving for T, Initial residual = 0.00205645, Final residual = 6.10082e-08, No Iterations 8
Time = 0.0514

DILUPBiCG:  Solving for T, Initial residual = 0.00205486, Final residual = 6.10442e-08, No Iterations 8
Time = 0.0515

DILUPBiCG:  Solving for T, Initial residual = 0.0020533, Final residual = 6.11306e-08, No Iterations 8
Time = 0.0516

DILUPBiCG:  Solving for T, Initial residual = 0.00205176, Final residual = 6.13808e-08, No Iterations 8
Time = 0.0517

DILUPBiCG:  Solving for T, Initial residual = 0.00205025, Final residual = 6.15425e-08, No Iterations 8
Time = 0.0518

DILUPBiCG:  Solving for T, Initial residual = 0.00204877, Final residual = 6.58978e-08, No Iterations 8
Time = 0.0519

DILUPBiCG:  Solving for T, Initial residual = 0.0020473, Final residual = 6.60518e-08, No Iterations 8
Time = 0.052

DILUPBiCG:  Solving for T, Initial residual = 0.00204586, Final residual = 6.37431e-08, No Iterations 8
Time = 0.0521

DILUPBiCG:  Solving for T, Initial residual = 0.00204445, Final residual = 6.38561e-08, No Iterations 8
Time = 0.0522

DILUPBiCG:  Solving for T, Initial residual = 0.00204305, Final residual = 6.39497e-08, No Iterations 8
Time = 0.0523

DILUPBiCG:  Solving for T, Initial residual = 0.00204168, Final residual = 6.41857e-08, No Iterations 8
Time = 0.0524

DILUPBiCG:  Solving for T, Initial residual = 0.00204033, Final residual = 6.07567e-08, No Iterations 8
Time = 0.0525

DILUPBiCG:  Solving for T, Initial residual = 0.002039, Final residual = 6.08699e-08, No Iterations 8
Time = 0.0526

DILUPBiCG:  Solving for T, Initial residual = 0.00203769, Final residual = 6.11654e-08, No Iterations 8
Time = 0.0527

DILUPBiCG:  Solving for T, Initial residual = 0.0020364, Final residual = 6.14741e-08, No Iterations 8
Time = 0.0528

DILUPBiCG:  Solving for T, Initial residual = 0.00203513, Final residual = 6.7207e-08, No Iterations 8
Time = 0.0529

DILUPBiCG:  Solving for T, Initial residual = 0.00203387, Final residual = 6.76138e-08, No Iterations 8
Time = 0.053

DILUPBiCG:  Solving for T, Initial residual = 0.00203264, Final residual = 6.45757e-08, No Iterations 8
Time = 0.0531

DILUPBiCG:  Solving for T, Initial residual = 0.00203142, Final residual = 6.47857e-08, No Iterations 8
Time = 0.0532

DILUPBiCG:  Solving for T, Initial residual = 0.00203023, Final residual = 6.5229e-08, No Iterations 8
Time = 0.0533

DILUPBiCG:  Solving for T, Initial residual = 0.00202905, Final residual = 6.56853e-08, No Iterations 8
Time = 0.0534

DILUPBiCG:  Solving for T, Initial residual = 0.00202788, Final residual = 6.61251e-08, No Iterations 8
Time = 0.0535

DILUPBiCG:  Solving for T, Initial residual = 0.00202673, Final residual = 6.70051e-08, No Iterations 8
Time = 0.0536

DILUPBiCG:  Solving for T, Initial residual = 0.0020256, Final residual = 6.78089e-08, No Iterations 8
Time = 0.0537

DILUPBiCG:  Solving for T, Initial residual = 0.00202448, Final residual = 6.27117e-08, No Iterations 8
Time = 0.0538

DILUPBiCG:  Solving for T, Initial residual = 0.00202338, Final residual = 7.00095e-08, No Iterations 8
Time = 0.0539

DILUPBiCG:  Solving for T, Initial residual = 0.00202229, Final residual = 7.06368e-08, No Iterations 8
Time = 0.054

DILUPBiCG:  Solving for T, Initial residual = 0.00202122, Final residual = 7.0953e-08, No Iterations 8
Time = 0.0541

DILUPBiCG:  Solving for T, Initial residual = 0.00202016, Final residual = 6.70521e-08, No Iterations 8
Time = 0.0542

DILUPBiCG:  Solving for T, Initial residual = 0.00201911, Final residual = 6.75932e-08, No Iterations 8
Time = 0.0543

DILUPBiCG:  Solving for T, Initial residual = 0.00201808, Final residual = 6.80679e-08, No Iterations 8
Time = 0.0544

DILUPBiCG:  Solving for T, Initial residual = 0.00201706, Final residual = 6.85526e-08, No Iterations 8
Time = 0.0545

DILUPBiCG:  Solving for T, Initial residual = 0.00201606, Final residual = 6.9062e-08, No Iterations 8
Time = 0.0546

DILUPBiCG:  Solving for T, Initial residual = 0.00201507, Final residual = 6.95525e-08, No Iterations 8
Time = 0.0547

DILUPBiCG:  Solving for T, Initial residual = 0.00201409, Final residual = 8.00561e-08, No Iterations 8
Time = 0.0548

DILUPBiCG:  Solving for T, Initial residual = 0.00201312, Final residual = 8.09221e-08, No Iterations 8
Time = 0.0549

DILUPBiCG:  Solving for T, Initial residual = 0.00201216, Final residual = 8.17919e-08, No Iterations 8
Time = 0.055

DILUPBiCG:  Solving for T, Initial residual = 0.00201122, Final residual = 8.29686e-08, No Iterations 8
Time = 0.0551

DILUPBiCG:  Solving for T, Initial residual = 0.00201029, Final residual = 8.41984e-08, No Iterations 8
Time = 0.0552

DILUPBiCG:  Solving for T, Initial residual = 0.00200936, Final residual = 8.58254e-08, No Iterations 8
Time = 0.0553

DILUPBiCG:  Solving for T, Initial residual = 0.00200845, Final residual = 7.3579e-08, No Iterations 8
Time = 0.0554

DILUPBiCG:  Solving for T, Initial residual = 0.00200755, Final residual = 7.44312e-08, No Iterations 8
Time = 0.0555

DILUPBiCG:  Solving for T, Initial residual = 0.00200667, Final residual = 7.53503e-08, No Iterations 8
Time = 0.0556

DILUPBiCG:  Solving for T, Initial residual = 0.00200579, Final residual = 9.31826e-08, No Iterations 8
Time = 0.0557

DILUPBiCG:  Solving for T, Initial residual = 0.00200492, Final residual = 8.74167e-08, No Iterations 8
Time = 0.0558

DILUPBiCG:  Solving for T, Initial residual = 0.00200406, Final residual = 8.88079e-08, No Iterations 8
Time = 0.0559

DILUPBiCG:  Solving for T, Initial residual = 0.00200322, Final residual = 9.01513e-08, No Iterations 8
Time = 0.056

DILUPBiCG:  Solving for T, Initial residual = 0.00200238, Final residual = 9.16555e-08, No Iterations 8
Time = 0.0561

DILUPBiCG:  Solving for T, Initial residual = 0.00200155, Final residual = 9.32289e-08, No Iterations 8
Time = 0.0562

DILUPBiCG:  Solving for T, Initial residual = 0.00200073, Final residual = 9.50486e-08, No Iterations 8
Time = 0.0563

DILUPBiCG:  Solving for T, Initial residual = 0.00199992, Final residual = 9.71138e-08, No Iterations 8
Time = 0.0564

DILUPBiCG:  Solving for T, Initial residual = 0.00199912, Final residual = 9.95231e-08, No Iterations 8
Time = 0.0565

DILUPBiCG:  Solving for T, Initial residual = 0.00199833, Final residual = 1.51005e-07, No Iterations 8
Time = 0.0566

DILUPBiCG:  Solving for T, Initial residual = 0.00199755, Final residual = 1.58739e-07, No Iterations 8
Time = 0.0567

DILUPBiCG:  Solving for T, Initial residual = 0.00199677, Final residual = 1.70433e-07, No Iterations 8
Time = 0.0568

DILUPBiCG:  Solving for T, Initial residual = 0.00199601, Final residual = 1.84453e-07, No Iterations 8
Time = 0.0569

DILUPBiCG:  Solving for T, Initial residual = 0.00199525, Final residual = 9.96545e-07, No Iterations 7
Time = 0.057

DILUPBiCG:  Solving for T, Initial residual = 0.0019945, Final residual = 8.59207e-07, No Iterations 7
Time = 0.0571

DILUPBiCG:  Solving for T, Initial residual = 0.00199376, Final residual = 8.94764e-07, No Iterations 7
Time = 0.0572

DILUPBiCG:  Solving for T, Initial residual = 0.00199303, Final residual = 9.76784e-07, No Iterations 7
Time = 0.0573

DILUPBiCG:  Solving for T, Initial residual = 0.0019923, Final residual = 1.68001e-07, No Iterations 8
Time = 0.0574

DILUPBiCG:  Solving for T, Initial residual = 0.00199158, Final residual = 1.837e-07, No Iterations 8
Time = 0.0575

DILUPBiCG:  Solving for T, Initial residual = 0.00199087, Final residual = 1.83599e-08, No Iterations 9
Time = 0.0576

DILUPBiCG:  Solving for T, Initial residual = 0.00199017, Final residual = 6.56951e-07, No Iterations 8
Time = 0.0577

DILUPBiCG:  Solving for T, Initial residual = 0.00198948, Final residual = 9.29351e-07, No Iterations 7
Time = 0.0578

DILUPBiCG:  Solving for T, Initial residual = 0.00198879, Final residual = 9.44575e-07, No Iterations 7
Time = 0.0579

DILUPBiCG:  Solving for T, Initial residual = 0.00198811, Final residual = 9.55333e-07, No Iterations 7
Time = 0.058

DILUPBiCG:  Solving for T, Initial residual = 0.00198743, Final residual = 8.16222e-07, No Iterations 7
Time = 0.0581

DILUPBiCG:  Solving for T, Initial residual = 0.00198676, Final residual = 8.12578e-07, No Iterations 7
Time = 0.0582

DILUPBiCG:  Solving for T, Initial residual = 0.0019861, Final residual = 8.20584e-07, No Iterations 7
Time = 0.0583

DILUPBiCG:  Solving for T, Initial residual = 0.00198545, Final residual = 8.24769e-07, No Iterations 7
Time = 0.0584

DILUPBiCG:  Solving for T, Initial residual = 0.0019848, Final residual = 6.9513e-07, No Iterations 7
Time = 0.0585

DILUPBiCG:  Solving for T, Initial residual = 0.00198416, Final residual = 6.92629e-07, No Iterations 7
Time = 0.0586

DILUPBiCG:  Solving for T, Initial residual = 0.00198352, Final residual = 6.89949e-07, No Iterations 7
Time = 0.0587

DILUPBiCG:  Solving for T, Initial residual = 0.00198289, Final residual = 4.38624e-07, No Iterations 7
Time = 0.0588

DILUPBiCG:  Solving for T, Initial residual = 0.00198227, Final residual = 4.38255e-07, No Iterations 7
Time = 0.0589

DILUPBiCG:  Solving for T, Initial residual = 0.00198165, Final residual = 4.38264e-07, No Iterations 7
Time = 0.059

DILUPBiCG:  Solving for T, Initial residual = 0.00198104, Final residual = 4.37402e-07, No Iterations 7
Time = 0.0591

DILUPBiCG:  Solving for T, Initial residual = 0.00198044, Final residual = 4.00427e-07, No Iterations 7
Time = 0.0592

DILUPBiCG:  Solving for T, Initial residual = 0.00197984, Final residual = 3.98781e-07, No Iterations 7
Time = 0.0593

DILUPBiCG:  Solving for T, Initial residual = 0.00197925, Final residual = 3.9751e-07, No Iterations 7
Time = 0.0594

DILUPBiCG:  Solving for T, Initial residual = 0.00197866, Final residual = 3.96521e-07, No Iterations 7
Time = 0.0595

DILUPBiCG:  Solving for T, Initial residual = 0.00197808, Final residual = 3.96209e-07, No Iterations 7
Time = 0.0596

DILUPBiCG:  Solving for T, Initial residual = 0.00197751, Final residual = 3.66019e-07, No Iterations 7
Time = 0.0597

DILUPBiCG:  Solving for T, Initial residual = 0.00197693, Final residual = 3.65133e-07, No Iterations 7
Time = 0.0598

DILUPBiCG:  Solving for T, Initial residual = 0.00197637, Final residual = 3.64717e-07, No Iterations 7
Time = 0.0599

DILUPBiCG:  Solving for T, Initial residual = 0.00197581, Final residual = 3.5049e-07, No Iterations 7
Time = 0.06

DILUPBiCG:  Solving for T, Initial residual = 0.00197525, Final residual = 3.31777e-07, No Iterations 7
Time = 0.0601

DILUPBiCG:  Solving for T, Initial residual = 0.00197471, Final residual = 3.31704e-07, No Iterations 7
Time = 0.0602

DILUPBiCG:  Solving for T, Initial residual = 0.00197416, Final residual = 3.34137e-07, No Iterations 7
Time = 0.0603

DILUPBiCG:  Solving for T, Initial residual = 0.00197362, Final residual = 3.33987e-07, No Iterations 7
Time = 0.0604

DILUPBiCG:  Solving for T, Initial residual = 0.00197309, Final residual = 3.12668e-07, No Iterations 7
Time = 0.0605

DILUPBiCG:  Solving for T, Initial residual = 0.00197256, Final residual = 3.13249e-07, No Iterations 7
Time = 0.0606

DILUPBiCG:  Solving for T, Initial residual = 0.00197203, Final residual = 3.14627e-07, No Iterations 7
Time = 0.0607

DILUPBiCG:  Solving for T, Initial residual = 0.00197151, Final residual = 3.15246e-07, No Iterations 7
Time = 0.0608

DILUPBiCG:  Solving for T, Initial residual = 0.001971, Final residual = 3.14371e-07, No Iterations 7
Time = 0.0609

DILUPBiCG:  Solving for T, Initial residual = 0.00197048, Final residual = 3.15252e-07, No Iterations 7
Time = 0.061

DILUPBiCG:  Solving for T, Initial residual = 0.00196998, Final residual = 3.16345e-07, No Iterations 7
Time = 0.0611

DILUPBiCG:  Solving for T, Initial residual = 0.00196947, Final residual = 3.16879e-07, No Iterations 7
Time = 0.0612

DILUPBiCG:  Solving for T, Initial residual = 0.00196898, Final residual = 3.25179e-07, No Iterations 7
Time = 0.0613

DILUPBiCG:  Solving for T, Initial residual = 0.00196848, Final residual = 3.26501e-07, No Iterations 7
Time = 0.0614

DILUPBiCG:  Solving for T, Initial residual = 0.00196799, Final residual = 3.27751e-07, No Iterations 7
Time = 0.0615

DILUPBiCG:  Solving for T, Initial residual = 0.00196751, Final residual = 3.36516e-07, No Iterations 7
Time = 0.0616

DILUPBiCG:  Solving for T, Initial residual = 0.00196702, Final residual = 3.38227e-07, No Iterations 7
Time = 0.0617

DILUPBiCG:  Solving for T, Initial residual = 0.00196655, Final residual = 3.39957e-07, No Iterations 7
Time = 0.0618

DILUPBiCG:  Solving for T, Initial residual = 0.00196607, Final residual = 3.41864e-07, No Iterations 7
Time = 0.0619

DILUPBiCG:  Solving for T, Initial residual = 0.0019656, Final residual = 3.43702e-07, No Iterations 7
Time = 0.062

DILUPBiCG:  Solving for T, Initial residual = 0.00196514, Final residual = 3.4563e-07, No Iterations 7
Time = 0.0621

DILUPBiCG:  Solving for T, Initial residual = 0.00196468, Final residual = 3.47551e-07, No Iterations 7
Time = 0.0622

DILUPBiCG:  Solving for T, Initial residual = 0.00196422, Final residual = 3.53279e-07, No Iterations 7
Time = 0.0623

DILUPBiCG:  Solving for T, Initial residual = 0.00196376, Final residual = 3.55336e-07, No Iterations 7
Time = 0.0624

DILUPBiCG:  Solving for T, Initial residual = 0.00196331, Final residual = 3.5743e-07, No Iterations 7
Time = 0.0625

DILUPBiCG:  Solving for T, Initial residual = 0.00196286, Final residual = 3.87662e-07, No Iterations 7
Time = 0.0626

DILUPBiCG:  Solving for T, Initial residual = 0.00196242, Final residual = 3.90663e-07, No Iterations 7
Time = 0.0627

DILUPBiCG:  Solving for T, Initial residual = 0.00196198, Final residual = 3.93255e-07, No Iterations 7
Time = 0.0628

DILUPBiCG:  Solving for T, Initial residual = 0.00196154, Final residual = 3.95899e-07, No Iterations 7
Time = 0.0629

DILUPBiCG:  Solving for T, Initial residual = 0.00196111, Final residual = 3.98594e-07, No Iterations 7
Time = 0.063

DILUPBiCG:  Solving for T, Initial residual = 0.00196068, Final residual = 4.01329e-07, No Iterations 7
Time = 0.0631

DILUPBiCG:  Solving for T, Initial residual = 0.00196025, Final residual = 4.04186e-07, No Iterations 7
Time = 0.0632

DILUPBiCG:  Solving for T, Initial residual = 0.00195983, Final residual = 3.96553e-07, No Iterations 7
Time = 0.0633

DILUPBiCG:  Solving for T, Initial residual = 0.00195941, Final residual = 3.99494e-07, No Iterations 7
Time = 0.0634

DILUPBiCG:  Solving for T, Initial residual = 0.00195899, Final residual = 4.02322e-07, No Iterations 7
Time = 0.0635

DILUPBiCG:  Solving for T, Initial residual = 0.00195858, Final residual = 4.05075e-07, No Iterations 7
Time = 0.0636

DILUPBiCG:  Solving for T, Initial residual = 0.00195817, Final residual = 4.08103e-07, No Iterations 7
Time = 0.0637

DILUPBiCG:  Solving for T, Initial residual = 0.00195776, Final residual = 4.11126e-07, No Iterations 7
Time = 0.0638

DILUPBiCG:  Solving for T, Initial residual = 0.00195736, Final residual = 4.14151e-07, No Iterations 7
Time = 0.0639

DILUPBiCG:  Solving for T, Initial residual = 0.00195696, Final residual = 4.36019e-07, No Iterations 7
Time = 0.064

DILUPBiCG:  Solving for T, Initial residual = 0.00195656, Final residual = 4.524e-07, No Iterations 7
Time = 0.0641

DILUPBiCG:  Solving for T, Initial residual = 0.00195616, Final residual = 4.55691e-07, No Iterations 7
Time = 0.0642

DILUPBiCG:  Solving for T, Initial residual = 0.00195577, Final residual = 4.59087e-07, No Iterations 7
Time = 0.0643

DILUPBiCG:  Solving for T, Initial residual = 0.00195538, Final residual = 4.62695e-07, No Iterations 7
Time = 0.0644

[...]
Time = 0.0833

DILUPBiCG:  Solving for T, Initial residual = 0.00191312, Final residual = 4.37266e-07, No Iterations 6
Time = 0.0834

DILUPBiCG:  Solving for T, Initial residual = 0.001913, Final residual = 4.35053e-07, No Iterations 6
Time = 0.0835

DILUPBiCG:  Solving for T, Initial residual = 0.00191288, Final residual = 4.33192e-07, No Iterations 6
Time = 0.0836

DILUPBiCG:  Solving for T, Initial residual = 0.00191276, Final residual = 4.31364e-07, No Iterations 6
Time = 0.0837

DILUPBiCG:  Solving for T, Initial residual = 0.00191264, Final residual = 4.29488e-07, No Iterations 6
Time = 0.0838

DILUPBiCG:  Solving for T, Initial residual = 0.00191252, Final residual = 4.27738e-07, No Iterations 6
Time = 0.0839

DILUPBiCG:  Solving for T, Initial residual = 0.00191241, Final residual = 4.26024e-07, No Iterations 6
Time = 0.084

DILUPBiCG:  Solving for T, Initial residual = 0.00191229, Final residual = 4.24084e-07, No Iterations 6
Time = 0.0841

DILUPBiCG:  Solving for T, Initial residual = 0.00191218, Final residual = 4.22745e-07, No Iterations 6
Time = 0.0842

DILUPBiCG:  Solving for T, Initial residual = 0.00191206, Final residual = 4.21122e-07, No Iterations 6
Time = 0.0843

DILUPBiCG:  Solving for T, Initial residual = 0.00191195, Final residual = 4.19555e-07, No Iterations 6
Time = 0.0844

DILUPBiCG:  Solving for T, Initial residual = 0.00191184, Final residual = 4.18014e-07, No Iterations 6
Time = 0.0845

DILUPBiCG:  Solving for T, Initial residual = 0.00191173, Final residual = 4.16505e-07, No Iterations 6
Time = 0.0846

DILUPBiCG:  Solving for T, Initial residual = 0.00191162, Final residual = 4.15e-07, No Iterations 6
Time = 0.0847

DILUPBiCG:  Solving for T, Initial residual = 0.0019115, Final residual = 4.13285e-07, No Iterations 6
Time = 0.0848

DILUPBiCG:  Solving for T, Initial residual = 0.00191139, Final residual = 4.11862e-07, No Iterations 6
Time = 0.0849

DILUPBiCG:  Solving for T, Initial residual = 0.00191129, Final residual = 4.10439e-07, No Iterations 6
Time = 0.085

DILUPBiCG:  Solving for T, Initial residual = 0.00191118, Final residual = 4.08933e-07, No Iterations 6
Time = 0.0851

DILUPBiCG:  Solving for T, Initial residual = 0.00191107, Final residual = 4.0755e-07, No Iterations 6
Time = 0.0852

DILUPBiCG:  Solving for T, Initial residual = 0.00191096, Final residual = 4.0585e-07, No Iterations 6
Time = 0.0853

DILUPBiCG:  Solving for T, Initial residual = 0.00191086, Final residual = 4.04541e-07, No Iterations 6
Time = 0.0854

DILUPBiCG:  Solving for T, Initial residual = 0.00191075, Final residual = 4.03288e-07, No Iterations 6
Time = 0.0855

DILUPBiCG:  Solving for T, Initial residual = 0.00191064, Final residual = 4.02023e-07, No Iterations 6
Time = 0.0856

DILUPBiCG:  Solving for T, Initial residual = 0.00191054, Final residual = 4.00846e-07, No Iterations 6
Time = 0.0857

DILUPBiCG:  Solving for T, Initial residual = 0.00191044, Final residual = 4.00817e-07, No Iterations 6
Time = 0.0858

DILUPBiCG:  Solving for T, Initial residual = 0.00191033, Final residual = 3.99702e-07, No Iterations 6
Time = 0.0859

DILUPBiCG:  Solving for T, Initial residual = 0.00191023, Final residual = 3.98575e-07, No Iterations 6
Time = 0.086

DILUPBiCG:  Solving for T, Initial residual = 0.00191013, Final residual = 3.97442e-07, No Iterations 6
Time = 0.0861

DILUPBiCG:  Solving for T, Initial residual = 0.00191003, Final residual = 3.96228e-07, No Iterations 6
Time = 0.0862

DILUPBiCG:  Solving for T, Initial residual = 0.00190992, Final residual = 3.95038e-07, No Iterations 6
Time = 0.0863

DILUPBiCG:  Solving for T, Initial residual = 0.00190982, Final residual = 3.93846e-07, No Iterations 6
Time = 0.0864

DILUPBiCG:  Solving for T, Initial residual = 0.00190972, Final residual = 3.92555e-07, No Iterations 6
Time = 0.0865

DILUPBiCG:  Solving for T, Initial residual = 0.00190963, Final residual = 3.92458e-07, No Iterations 6
Time = 0.0866

DILUPBiCG:  Solving for T, Initial residual = 0.00190953, Final residual = 3.9136e-07, No Iterations 6
Time = 0.0867

DILUPBiCG:  Solving for T, Initial residual = 0.00190943, Final residual = 3.90569e-07, No Iterations 6
Time = 0.0868

DILUPBiCG:  Solving for T, Initial residual = 0.00190933, Final residual = 3.89521e-07, No Iterations 6
Time = 0.0869

DILUPBiCG:  Solving for T, Initial residual = 0.00190923, Final residual = 3.88549e-07, No Iterations 6
Time = 0.087

DILUPBiCG:  Solving for T, Initial residual = 0.00190914, Final residual = 3.87586e-07, No Iterations 6
Time = 0.0871

DILUPBiCG:  Solving for T, Initial residual = 0.00190904, Final residual = 3.86941e-07, No Iterations 6
Time = 0.0872

DILUPBiCG:  Solving for T, Initial residual = 0.00190895, Final residual = 3.86377e-07, No Iterations 6
Time = 0.0873

DILUPBiCG:  Solving for T, Initial residual = 0.00190885, Final residual = 3.85268e-07, No Iterations 6
Time = 0.0874

DILUPBiCG:  Solving for T, Initial residual = 0.00190876, Final residual = 3.83986e-07, No Iterations 6
Time = 0.0875

DILUPBiCG:  Solving for T, Initial residual = 0.00190867, Final residual = 3.8296e-07, No Iterations 6
Time = 0.0876

DILUPBiCG:  Solving for T, Initial residual = 0.00190857, Final residual = 3.81907e-07, No Iterations 6
Time = 0.0877

DILUPBiCG:  Solving for T, Initial residual = 0.00190848, Final residual = 3.81083e-07, No Iterations 6
Time = 0.0878

DILUPBiCG:  Solving for T, Initial residual = 0.00190839, Final residual = 3.80101e-07, No Iterations 6
Time = 0.0879

DILUPBiCG:  Solving for T, Initial residual = 0.0019083, Final residual = 3.79277e-07, No Iterations 6
Time = 0.088

DILUPBiCG:  Solving for T, Initial residual = 0.00190821, Final residual = 3.78309e-07, No Iterations 6
Time = 0.0881

DILUPBiCG:  Solving for T, Initial residual = 0.00190812, Final residual = 3.77534e-07, No Iterations 6
Time = 0.0882

DILUPBiCG:  Solving for T, Initial residual = 0.00190803, Final residual = 3.76778e-07, No Iterations 6
Time = 0.0883

DILUPBiCG:  Solving for T, Initial residual = 0.00190794, Final residual = 3.75951e-07, No Iterations 6
Time = 0.0884

DILUPBiCG:  Solving for T, Initial residual = 0.00190785, Final residual = 3.7508e-07, No Iterations 6
Time = 0.0885

DILUPBiCG:  Solving for T, Initial residual = 0.00190776, Final residual = 3.74284e-07, No Iterations 6
Time = 0.0886

DILUPBiCG:  Solving for T, Initial residual = 0.00190768, Final residual = 3.7365e-07, No Iterations 6
Time = 0.0887

DILUPBiCG:  Solving for T, Initial residual = 0.00190759, Final residual = 3.72943e-07, No Iterations 6
Time = 0.0888

DILUPBiCG:  Solving for T, Initial residual = 0.00190751, Final residual = 3.72247e-07, No Iterations 6
Time = 0.0889

DILUPBiCG:  Solving for T, Initial residual = 0.00190742, Final residual = 3.71544e-07, No Iterations 6
Time = 0.089

DILUPBiCG:  Solving for T, Initial residual = 0.00190733, Final residual = 3.70896e-07, No Iterations 6
Time = 0.0891

DILUPBiCG:  Solving for T, Initial residual = 0.00190725, Final residual = 3.70263e-07, No Iterations 6
Time = 0.0892

DILUPBiCG:  Solving for T, Initial residual = 0.00190717, Final residual = 3.69651e-07, No Iterations 6
Time = 0.0893

DILUPBiCG:  Solving for T, Initial residual = 0.00190708, Final residual = 3.69421e-07, No Iterations 6
Time = 0.0894

DILUPBiCG:  Solving for T, Initial residual = 0.001907, Final residual = 3.68912e-07, No Iterations 6
Time = 0.0895

DILUPBiCG:  Solving for T, Initial residual = 0.00190692, Final residual = 3.68636e-07, No Iterations 6
Time = 0.0896

DILUPBiCG:  Solving for T, Initial residual = 0.00190684, Final residual = 3.68088e-07, No Iterations 6
Time = 0.0897

DILUPBiCG:  Solving for T, Initial residual = 0.00190676, Final residual = 3.67553e-07, No Iterations 6
Time = 0.0898

DILUPBiCG:  Solving for T, Initial residual = 0.00190667, Final residual = 3.67088e-07, No Iterations 6
Time = 0.0899

DILUPBiCG:  Solving for T, Initial residual = 0.00190659, Final residual = 3.66816e-07, No Iterations 6
Time = 0.09

DILUPBiCG:  Solving for T, Initial residual = 0.00190651, Final residual = 3.66405e-07, No Iterations 6
Time = 0.0901

DILUPBiCG:  Solving for T, Initial residual = 0.00190643, Final residual = 3.65982e-07, No Iterations 6
Time = 0.0902

DILUPBiCG:  Solving for T, Initial residual = 0.00190636, Final residual = 3.65473e-07, No Iterations 6
Time = 0.0903

DILUPBiCG:  Solving for T, Initial residual = 0.00190628, Final residual = 3.64967e-07, No Iterations 6
Time = 0.0904

DILUPBiCG:  Solving for T, Initial residual = 0.0019062, Final residual = 3.64628e-07, No Iterations 6
Time = 0.0905

DILUPBiCG:  Solving for T, Initial residual = 0.00190612, Final residual = 3.64191e-07, No Iterations 6
Time = 0.0906

DILUPBiCG:  Solving for T, Initial residual = 0.00190604, Final residual = 3.63715e-07, No Iterations 6
Time = 0.0907

DILUPBiCG:  Solving for T, Initial residual = 0.00190597, Final residual = 3.63265e-07, No Iterations 6
Time = 0.0908

DILUPBiCG:  Solving for T, Initial residual = 0.00190589, Final residual = 3.62826e-07, No Iterations 6
Time = 0.0909

DILUPBiCG:  Solving for T, Initial residual = 0.00190582, Final residual = 3.62353e-07, No Iterations 6
Time = 0.091

DILUPBiCG:  Solving for T, Initial residual = 0.00190574, Final residual = 3.61936e-07, No Iterations 6
Time = 0.0911

DILUPBiCG:  Solving for T, Initial residual = 0.00190567, Final residual = 3.61531e-07, No Iterations 6
Time = 0.0912

DILUPBiCG:  Solving for T, Initial residual = 0.00190559, Final residual = 3.6113e-07, No Iterations 6
Time = 0.0913

DILUPBiCG:  Solving for T, Initial residual = 0.00190552, Final residual = 3.60746e-07, No Iterations 6
Time = 0.0914

DILUPBiCG:  Solving for T, Initial residual = 0.00190544, Final residual = 3.60243e-07, No Iterations 6
Time = 0.0915

DILUPBiCG:  Solving for T, Initial residual = 0.00190537, Final residual = 3.59872e-07, No Iterations 6
Time = 0.0916

DILUPBiCG:  Solving for T, Initial residual = 0.0019053, Final residual = 3.59331e-07, No Iterations 6
Time = 0.0917

DILUPBiCG:  Solving for T, Initial residual = 0.00190523, Final residual = 3.59008e-07, No Iterations 6
Time = 0.0918

DILUPBiCG:  Solving for T, Initial residual = 0.00190515, Final residual = 3.58619e-07, No Iterations 6
Time = 0.0919

DILUPBiCG:  Solving for T, Initial residual = 0.00190508, Final residual = 3.58399e-07, No Iterations 6
Time = 0.092

DILUPBiCG:  Solving for T, Initial residual = 0.00190501, Final residual = 3.58046e-07, No Iterations 6
Time = 0.0921

DILUPBiCG:  Solving for T, Initial residual = 0.00190494, Final residual = 3.57709e-07, No Iterations 6
Time = 0.0922

DILUPBiCG:  Solving for T, Initial residual = 0.00190487, Final residual = 3.57394e-07, No Iterations 6
Time = 0.0923

DILUPBiCG:  Solving for T, Initial residual = 0.0019048, Final residual = 3.57072e-07, No Iterations 6
Time = 0.0924

DILUPBiCG:  Solving for T, Initial residual = 0.00190473, Final residual = 3.56521e-07, No Iterations 6
Time = 0.0925

DILUPBiCG:  Solving for T, Initial residual = 0.00190467, Final residual = 3.56175e-07, No Iterations 6
Time = 0.0926

DILUPBiCG:  Solving for T, Initial residual = 0.0019046, Final residual = 3.55895e-07, No Iterations 6
Time = 0.0927

DILUPBiCG:  Solving for T, Initial residual = 0.00190453, Final residual = 3.59236e-07, No Iterations 6
Time = 0.0928

DILUPBiCG:  Solving for T, Initial residual = 0.00190446, Final residual = 3.5976e-07, No Iterations 6
Time = 0.0929

DILUPBiCG:  Solving for T, Initial residual = 0.0019044, Final residual = 3.59482e-07, No Iterations 6
Time = 0.093

DILUPBiCG:  Solving for T, Initial residual = 0.00190433, Final residual = 3.59235e-07, No Iterations 6
Time = 0.0931

DILUPBiCG:  Solving for T, Initial residual = 0.00190426, Final residual = 3.58969e-07, No Iterations 6
Time = 0.0932

DILUPBiCG:  Solving for T, Initial residual = 0.0019042, Final residual = 3.58711e-07, No Iterations 6
Time = 0.0933

DILUPBiCG:  Solving for T, Initial residual = 0.00190413, Final residual = 3.58391e-07, No Iterations 6
Time = 0.0934

DILUPBiCG:  Solving for T, Initial residual = 0.00190407, Final residual = 3.58162e-07, No Iterations 6
Time = 0.0935

DILUPBiCG:  Solving for T, Initial residual = 0.00190401, Final residual = 3.5794e-07, No Iterations 6
Time = 0.0936

DILUPBiCG:  Solving for T, Initial residual = 0.00190394, Final residual = 3.57629e-07, No Iterations 6
Time = 0.0937

DILUPBiCG:  Solving for T, Initial residual = 0.00190388, Final residual = 3.57408e-07, No Iterations 6
Time = 0.0938

DILUPBiCG:  Solving for T, Initial residual = 0.00190381, Final residual = 3.57195e-07, No Iterations 6
Time = 0.0939

DILUPBiCG:  Solving for T, Initial residual = 0.00190375, Final residual = 3.56985e-07, No Iterations 6
Time = 0.094

DILUPBiCG:  Solving for T, Initial residual = 0.00190369, Final residual = 3.56779e-07, No Iterations 6
Time = 0.0941

DILUPBiCG:  Solving for T, Initial residual = 0.00190363, Final residual = 3.56569e-07, No Iterations 6
Time = 0.0942

DILUPBiCG:  Solving for T, Initial residual = 0.00190357, Final residual = 3.56396e-07, No Iterations 6
Time = 0.0943

DILUPBiCG:  Solving for T, Initial residual = 0.0019035, Final residual = 3.56221e-07, No Iterations 6
Time = 0.0944

DILUPBiCG:  Solving for T, Initial residual = 0.00190344, Final residual = 3.56117e-07, No Iterations 6
Time = 0.0945

DILUPBiCG:  Solving for T, Initial residual = 0.00190338, Final residual = 3.5598e-07, No Iterations 6
Time = 0.0946

DILUPBiCG:  Solving for T, Initial residual = 0.00190332, Final residual = 3.55739e-07, No Iterations 6
Time = 0.0947

DILUPBiCG:  Solving for T, Initial residual = 0.00190326, Final residual = 3.55571e-07, No Iterations 6
Time = 0.0948

DILUPBiCG:  Solving for T, Initial residual = 0.0019032, Final residual = 3.55425e-07, No Iterations 6
Time = 0.0949

DILUPBiCG:  Solving for T, Initial residual = 0.00190315, Final residual = 3.55286e-07, No Iterations 6
Time = 0.095

DILUPBiCG:  Solving for T, Initial residual = 0.00190309, Final residual = 3.55091e-07, No Iterations 6
Time = 0.0951

DILUPBiCG:  Solving for T, Initial residual = 0.00190303, Final residual = 3.54936e-07, No Iterations 6
Time = 0.0952

DILUPBiCG:  Solving for T, Initial residual = 0.00190297, Final residual = 3.54756e-07, No Iterations 6
Time = 0.0953

DILUPBiCG:  Solving for T, Initial residual = 0.00190291, Final residual = 3.54746e-07, No Iterations 6
Time = 0.0954

DILUPBiCG:  Solving for T, Initial residual = 0.00190286, Final residual = 3.54492e-07, No Iterations 6
Time = 0.0955

DILUPBiCG:  Solving for T, Initial residual = 0.0019028, Final residual = 3.54382e-07, No Iterations 6
Time = 0.0956

DILUPBiCG:  Solving for T, Initial residual = 0.00190274, Final residual = 3.5425e-07, No Iterations 6
Time = 0.0957

DILUPBiCG:  Solving for T, Initial residual = 0.00190269, Final residual = 3.54122e-07, No Iterations 6
Time = 0.0958

DILUPBiCG:  Solving for T, Initial residual = 0.00190263, Final residual = 3.53796e-07, No Iterations 6
Time = 0.0959

DILUPBiCG:  Solving for T, Initial residual = 0.00190257, Final residual = 3.53657e-07, No Iterations 6
Time = 0.096

DILUPBiCG:  Solving for T, Initial residual = 0.00190252, Final residual = 3.53542e-07, No Iterations 6
Time = 0.0961

DILUPBiCG:  Solving for T, Initial residual = 0.00190246, Final residual = 3.53426e-07, No Iterations 6
Time = 0.0962

DILUPBiCG:  Solving for T, Initial residual = 0.00190241, Final residual = 3.53347e-07, No Iterations 6
Time = 0.0963

DILUPBiCG:  Solving for T, Initial residual = 0.00190236, Final residual = 3.53255e-07, No Iterations 6
Time = 0.0964

DILUPBiCG:  Solving for T, Initial residual = 0.0019023, Final residual = 3.53304e-07, No Iterations 6
Time = 0.0965

DILUPBiCG:  Solving for T, Initial residual = 0.00190225, Final residual = 3.53201e-07, No Iterations 6
Time = 0.0966

DILUPBiCG:  Solving for T, Initial residual = 0.0019022, Final residual = 3.53024e-07, No Iterations 6
Time = 0.0967

DILUPBiCG:  Solving for T, Initial residual = 0.00190214, Final residual = 3.52882e-07, No Iterations 6
Time = 0.0968

DILUPBiCG:  Solving for T, Initial residual = 0.00190209, Final residual = 3.52782e-07, No Iterations 6
Time = 0.0969

DILUPBiCG:  Solving for T, Initial residual = 0.00190204, Final residual = 3.52592e-07, No Iterations 6
Time = 0.097

DILUPBiCG:  Solving for T, Initial residual = 0.00190199, Final residual = 3.52559e-07, No Iterations 6
Time = 0.0971

DILUPBiCG:  Solving for T, Initial residual = 0.00190193, Final residual = 3.5248e-07, No Iterations 6
Time = 0.0972

DILUPBiCG:  Solving for T, Initial residual = 0.00190188, Final residual = 3.52407e-07, No Iterations 6
Time = 0.0973

DILUPBiCG:  Solving for T, Initial residual = 0.00190183, Final residual = 3.52297e-07, No Iterations 6
Time = 0.0974

DILUPBiCG:  Solving for T, Initial residual = 0.00190178, Final residual = 3.52232e-07, No Iterations 6
Time = 0.0975

DILUPBiCG:  Solving for T, Initial residual = 0.00190173, Final residual = 3.52119e-07, No Iterations 6
Time = 0.0976

DILUPBiCG:  Solving for T, Initial residual = 0.00190168, Final residual = 3.52062e-07, No Iterations 6
Time = 0.0977

DILUPBiCG:  Solving for T, Initial residual = 0.00190163, Final residual = 3.51984e-07, No Iterations 6
Time = 0.0978

DILUPBiCG:  Solving for T, Initial residual = 0.00190158, Final residual = 3.51929e-07, No Iterations 6
Time = 0.0979

DILUPBiCG:  Solving for T, Initial residual = 0.00190153, Final residual = 3.51956e-07, No Iterations 6
Time = 0.098

DILUPBiCG:  Solving for T, Initial residual = 0.00190148, Final residual = 3.52976e-07, No Iterations 6
Time = 0.0981

DILUPBiCG:  Solving for T, Initial residual = 0.00190143, Final residual = 3.52904e-07, No Iterations 6
Time = 0.0982

DILUPBiCG:  Solving for T, Initial residual = 0.00190139, Final residual = 3.52969e-07, No Iterations 6
Time = 0.0983

DILUPBiCG:  Solving for T, Initial residual = 0.00190134, Final residual = 3.52938e-07, No Iterations 6
Time = 0.0984

DILUPBiCG:  Solving for T, Initial residual = 0.00190129, Final residual = 3.52896e-07, No Iterations 6
Time = 0.0985

DILUPBiCG:  Solving for T, Initial residual = 0.00190124, Final residual = 3.52821e-07, No Iterations 6
Time = 0.0986

DILUPBiCG:  Solving for T, Initial residual = 0.0019012, Final residual = 3.52793e-07, No Iterations 6
Time = 0.0987

DILUPBiCG:  Solving for T, Initial residual = 0.00190115, Final residual = 3.52712e-07, No Iterations 6
Time = 0.0988

DILUPBiCG:  Solving for T, Initial residual = 0.0019011, Final residual = 3.52703e-07, No Iterations 6
Time = 0.0989

DILUPBiCG:  Solving for T, Initial residual = 0.00190106, Final residual = 3.52621e-07, No Iterations 6
Time = 0.099

DILUPBiCG:  Solving for T, Initial residual = 0.00190101, Final residual = 3.52563e-07, No Iterations 6
Time = 0.0991

DILUPBiCG:  Solving for T, Initial residual = 0.00190096, Final residual = 3.52509e-07, No Iterations 6
Time = 0.0992

DILUPBiCG:  Solving for T, Initial residual = 0.00190092, Final residual = 3.52414e-07, No Iterations 6
Time = 0.0993

DILUPBiCG:  Solving for T, Initial residual = 0.00190087, Final residual = 3.51867e-07, No Iterations 6
Time = 0.0994

DILUPBiCG:  Solving for T, Initial residual = 0.00190083, Final residual = 3.51839e-07, No Iterations 6
Time = 0.0995

DILUPBiCG:  Solving for T, Initial residual = 0.00190078, Final residual = 3.51804e-07, No Iterations 6
Time = 0.0996

DILUPBiCG:  Solving for T, Initial residual = 0.00190074, Final residual = 3.51744e-07, No Iterations 6
Time = 0.0997

DILUPBiCG:  Solving for T, Initial residual = 0.0019007, Final residual = 3.51617e-07, No Iterations 6
Time = 0.0998

DILUPBiCG:  Solving for T, Initial residual = 0.00190065, Final residual = 3.51554e-07, No Iterations 6
Time = 0.0999

DILUPBiCG:  Solving for T, Initial residual = 0.00190061, Final residual = 3.51664e-07, No Iterations 6
Time = 0.1

DILUPBiCG:  Solving for T, Initial residual = 0.00190057, Final residual = 3.51635e-07, No Iterations 6
End

