LAMMPS (10 Oct 2018)
# 3d EAM surface for global HD

# nearest neighbor distance = a * sqrt(2)/2 = 2.77 Angs for Pt with a = 3.92
# hop event on (100) surface is same distance
# exchange event is 2 atoms moving same distance

variable        Tequil index 500.0
variable        Vmax index 0.5
variable        qfactor index 0.3
variable        cutbond index 3.2
variable        cutevent index 1.1
variable        steps index 100000
variable        nevent index 1000
variable        zoom index 1.8

units           metal
atom_style	atomic
atom_modify     map array
boundary        p p p

lattice		fcc 3.92
Lattice spacing in x,y,z = 3.92 3.92 3.92
region		box block 0 6 0 6 0 4
create_box	3 box
Created orthogonal box = (0 0 0) to (23.52 23.52 15.68)
create_atoms	1 box
Created 576 atoms
  Time spent = 0.000782013 secs

mass            * 1.0

change_box      all z final -0.1 5.0 boundary p p f
  orthogonal box = (0 0 -0.392) to (23.52 23.52 19.6)
create_atoms    2 single 3.5 3.5 4
Created 1 atoms
  Time spent = 4.69685e-05 secs

# define frozen substrate and mobile atoms

group           adatom type 2
1 atoms in group adatom
region          base block INF INF INF INF 0 1.8
set             region base type 3
  288 settings made for type
group           base type 3
288 atoms in group base
group           mobile type 1 2
289 atoms in group mobile

# pair style

pair_style	eam/alloy
pair_coeff	* * ptvoterlammps.eam Pt Pt Pt

neighbor	0.5 bin
neigh_modify    every 1 delay 5 check yes

fix		1 mobile nve
fix		2 mobile langevin 500.0 500.0 1.0 858872873 zero yes

timestep	0.005

compute         tmobile mobile temp

thermo		100
thermo_modify   temp tmobile

# thermal equilibration

run             1000
  update every 1 steps, delay 5 steps, check yes
Step Temp E_pair E_mol TotEng Press
0            0   -3213.9136            0   -3213.9136   -51843.125
Averages over the last 6 of 11 rows, steps 500 to 1000:
Temp E_pair E_mol TotEng Press
494.435 -3199.88 0 -3181.47 -34074.8
Loop time of 0.333434 on 4 procs for 1000 steps with 577 atoms

reset_timestep  0

# pin base so will not move during quenches

fix             freeze base setforce 0.0 0.0 0.0

# event detection

compute         event all event/displace 1.1

# hyper/global

fix             HG mobile hyper/global 3.2 0.3 0.5 500.0

# thermo output

thermo_style    custom step temp pe f_HG f_HG[*]

thermo_modify   lost ignore
thermo_modify   temp tmobile

thermo          1000

# dump output options

region          substrate block INF INF INF INF 1.8 3.8
region          adatoms block INF INF INF INF 3.8 INF
variable        acolor atom rmask(base)+2*rmask(substrate)+3*rmask(adatoms)

dump		1 all image 1000000 global.*.jpg v_acolor type 		zoom 1.8 adiam 2.5 view 0.0 0.0 up 0 1 0 axes yes 0.9 0.01
dump_modify	1 pad 6 amap 1 3 sa 1 3 blue red green

# run

hyper           100000 1000 HG event min 1.0e-6 1.0e-6 100 100 dump 1
  update every 1 steps, delay 0 steps, check yes
Step Temp PotEng f_HG f_HG[1] f_HG[2] f_HG[3] f_HG[4] f_HG[5] f_HG[6] f_HG[7] f_HG[8] f_HG[9] f_HG[10] f_HG[11]
0    522.64479   -3200.0627            0            0            0            0            0            0            0            0            0            0            0            0
Loop time of 0.0106812 on 4 procs for 13 steps with 577 atoms

Step Temp PotEng f_HG f_HG[1] f_HG[2] f_HG[3] f_HG[4] f_HG[5] f_HG[6] f_HG[7] f_HG[8] f_HG[9] f_HG[10] f_HG[11]
0    522.64479   -3200.0627   0.39402008    9365.7631   0.13811729          429          426    6.0069324            0   0.36151295    3.1652084            0            0            0
Loop time of 0.314234 on 4 procs for 1000 steps with 577 atoms

Step Temp PotEng f_HG f_HG[1] f_HG[2] f_HG[3] f_HG[4] f_HG[5] f_HG[6] f_HG[7] f_HG[8] f_HG[9] f_HG[10] f_HG[11]
1000    512.35059   -3198.5556   0.32845525    2044.9347   0.17572153          257          259    6.0069324        0.137   0.77425934    3.8913771    5302.7599            0            0
Loop time of 0.0071606 on 4 procs for 14 steps with 577 atoms

Step Temp PotEng f_HG f_HG[1] f_HG[2] f_HG[3] f_HG[4] f_HG[5] f_HG[6] f_HG[7] f_HG[8] f_HG[9] f_HG[10] f_HG[11]
1000    512.35059   -3198.5556   0.32845525    2044.9347   0.17572153          257          259    6.0069324        0.137   0.77425934    3.8913771    5302.7599            0            0
Loop time of 0.33185 on 4 procs for 1000 steps with 577 atoms

Step Temp PotEng f_HG f_HG[1] f_HG[2] f_HG[3] f_HG[4] f_HG[5] f_HG[6] f_HG[7] f_HG[8] f_HG[9] f_HG[10] f_HG[11]
2000    502.60215   -3197.7892   0.01351505    1.3684394   0.29591771          116          127    6.0069324        0.103   0.77425934    3.8913771    11603.458            0            0
Loop time of 0.00889879 on 4 procs for 15 steps with 577 atoms

Step Temp PotEng f_HG f_HG[1] f_HG[2] f_HG[3] f_HG[4] f_HG[5] f_HG[6] f_HG[7] f_HG[8] f_HG[9] f_HG[10] f_HG[11]
2000    502.60215   -3197.7892   0.01351505    1.3684394   0.29591771          116          127    6.0069324        0.103   0.77425934    3.8913771    11603.458            0            0
Loop time of 0.334598 on 4 procs for 1000 steps with 577 atoms

Step Temp PotEng f_HG f_HG[1] f_HG[2] f_HG[3] f_HG[4] f_HG[5] f_HG[6] f_HG[7] f_HG[8] f_HG[9] f_HG[10] f_HG[11]
3000    481.01481   -3199.1324            0            1    1.0289113          542          544    6.0069324        0.212    2.8308749    5.5814852    12488.613            0            0
Loop time of 0.0103227 on 4 procs for 14 steps with 577 atoms

Step Temp PotEng f_HG f_HG[1] f_HG[2] f_HG[3] f_HG[4] f_HG[5] f_HG[6] f_HG[7] f_HG[8] f_HG[9] f_HG[10] f_HG[11]
3000    481.01481   -3199.1324   0.25134819    341.56656   0.21155927          277          539    6.0069324        0.212    2.8308749    5.5814852    12488.613            1            2
Loop time of 0.302547 on 4 procs for 1000 steps with 577 atoms

Step Temp PotEng f_HG f_HG[1] f_HG[2] f_HG[3] f_HG[4] f_HG[5] f_HG[6] f_HG[7] f_HG[8] f_HG[9] f_HG[10] f_HG[11]
4000    474.51721   -3197.9082   0.26384891    456.53799   0.20617274          361           83    6.0069324      0.18325    2.8308749    5.5814852     22776.39            1            2
Loop time of 0.00868511 on 4 procs for 14 steps with 577 atoms

Step Temp PotEng f_HG f_HG[1] f_HG[2] f_HG[3] f_HG[4] f_HG[5] f_HG[6] f_HG[7] f_HG[8] f_HG[9] f_HG[10] f_HG[11]
4000    474.51721   -3197.9082   0.26384891    456.53799   0.20617274          361           83    6.0069324      0.18325    2.8308749    5.5814852     22776.39            1            2
Loop time of 0.300419 on 4 procs for 1000 steps with 577 atoms

Step Temp PotEng f_HG f_HG[1] f_HG[2] f_HG[3] f_HG[4] f_HG[5] f_HG[6] f_HG[7] f_HG[8] f_HG[9] f_HG[10] f_HG[11]
5000    478.08772   -3199.6792  0.043886568    2.7692147    0.2865317          275          577    6.0069324       0.1586    2.8308749    5.5814852    35085.309            1            2
Loop time of 0.00705171 on 4 procs for 15 steps with 577 atoms

Step Temp PotEng f_HG f_HG[1] f_HG[2] f_HG[3] f_HG[4] f_HG[5] f_HG[6] f_HG[7] f_HG[8] f_HG[9] f_HG[10] f_HG[11]
5000    478.08772   -3199.6792  0.043886568    2.7692147    0.2865317          275          577    6.0069324       0.1586    2.8308749    5.5814852    35085.309            1            2
Loop time of 0.287999 on 4 procs for 1000 steps with 577 atoms

Step Temp PotEng f_HG f_HG[1] f_HG[2] f_HG[3] f_HG[4] f_HG[5] f_HG[6] f_HG[7] f_HG[8] f_HG[9] f_HG[10] f_HG[11]
6000    458.77612   -3197.8588   0.27710376    620.98321   0.20030308          511          546    6.0069324        0.171    2.8308749    5.5814852    38747.284            1            2
Loop time of 0.00888014 on 4 procs for 15 steps with 577 atoms

Step Temp PotEng f_HG f_HG[1] f_HG[2] f_HG[3] f_HG[4] f_HG[5] f_HG[6] f_HG[7] f_HG[8] f_HG[9] f_HG[10] f_HG[11]
6000    458.77612   -3197.8588   0.27710376    620.98321   0.20030308          511          546    6.0069324        0.171    2.8308749    5.5814852    38747.284            1            2
Loop time of 0.29168 on 4 procs for 1000 steps with 577 atoms

Step Temp PotEng f_HG f_HG[1] f_HG[2] f_HG[3] f_HG[4] f_HG[5] f_HG[6] f_HG[7] f_HG[8] f_HG[9] f_HG[10] f_HG[11]
7000    476.88452   -3198.3269    0.0828164    6.8352063   0.27403111          264          275    6.0069324   0.17714286    2.8308749    5.5814852    45612.389            1            2
Loop time of 0.00871038 on 4 procs for 15 steps with 577 atoms

Step Temp PotEng f_HG f_HG[1] f_HG[2] f_HG[3] f_HG[4] f_HG[5] f_HG[6] f_HG[7] f_HG[8] f_HG[9] f_HG[10] f_HG[11]
7000    476.88452   -3198.3269    0.0828164    6.8352063   0.27403111          264          275    6.0069324   0.17714286    2.8308749    5.5814852    45612.389            1            2
Loop time of 0.284021 on 4 procs for 1000 steps with 577 atoms

Step Temp PotEng f_HG f_HG[1] f_HG[2] f_HG[3] f_HG[4] f_HG[5] f_HG[6] f_HG[7] f_HG[8] f_HG[9] f_HG[10] f_HG[11]
8000    521.60584   -3199.0138   0.22715857    194.82964   0.22161105          419          124    6.0069324     0.191875    2.8308749    5.5814852    46748.053            1            2
Loop time of 0.00697637 on 4 procs for 15 steps with 577 atoms

Step Temp PotEng f_HG f_HG[1] f_HG[2] f_HG[3] f_HG[4] f_HG[5] f_HG[6] f_HG[7] f_HG[8] f_HG[9] f_HG[10] f_HG[11]
8000    521.60584   -3199.0138   0.22715857    194.82964   0.22161105          419          124    6.0069324     0.191875    2.8308749    5.5814852    46748.053            1            2
Loop time of 0.238759 on 4 procs for 1000 steps with 577 atoms

Step Temp PotEng f_HG f_HG[1] f_HG[2] f_HG[3] f_HG[4] f_HG[5] f_HG[6] f_HG[7] f_HG[8] f_HG[9] f_HG[10] f_HG[11]
9000    496.87475   -3198.4928   0.13677449    23.912479   0.25569629          264          275    6.0069324   0.18388889    2.8308749    5.5814852    49596.596            1            2
Loop time of 0.00677681 on 4 procs for 14 steps with 577 atoms

Step Temp PotEng f_HG f_HG[1] f_HG[2] f_HG[3] f_HG[4] f_HG[5] f_HG[6] f_HG[7] f_HG[8] f_HG[9] f_HG[10] f_HG[11]
9000    496.87475   -3198.4928   0.13677449    23.912479   0.25569629          264          275    6.0069324   0.18388889    2.8308749    5.5814852    49596.596            1            2
Loop time of 0.23881 on 4 procs for 1000 steps with 577 atoms

Step Temp PotEng f_HG f_HG[1] f_HG[2] f_HG[3] f_HG[4] f_HG[5] f_HG[6] f_HG[7] f_HG[8] f_HG[9] f_HG[10] f_HG[11]
10000     478.6826   -3199.6673   0.37406677    5894.1727    0.1505589          127          132    6.0069324       0.1982    2.8308749    5.5814852    54170.476            1            2
Loop time of 0.00627023 on 4 procs for 13 steps with 577 atoms

Step Temp PotEng f_HG f_HG[1] f_HG[2] f_HG[3] f_HG[4] f_HG[5] f_HG[6] f_HG[7] f_HG[8] f_HG[9] f_HG[10] f_HG[11]
10000     478.6826   -3199.6673   0.37406677    5894.1727    0.1505589          127          132    6.0069324       0.1982    2.8308749    5.5814852    54170.476            1            2
Loop time of 0.238288 on 4 procs for 1000 steps with 577 atoms

Step Temp PotEng f_HG f_HG[1] f_HG[2] f_HG[3] f_HG[4] f_HG[5] f_HG[6] f_HG[7] f_HG[8] f_HG[9] f_HG[10] f_HG[11]
11000    518.40222   -3199.3332   0.34753231    3183.9595   0.16566286          383          418    6.0069324   0.18809091    2.8308749    5.5814852    58304.709            1            2
Loop time of 0.00599569 on 4 procs for 13 steps with 577 atoms

Step Temp PotEng f_HG f_HG[1] f_HG[2] f_HG[3] f_HG[4] f_HG[5] f_HG[6] f_HG[7] f_HG[8] f_HG[9] f_HG[10] f_HG[11]
11000    518.40222   -3199.3332   0.34753231    3183.9595   0.16566286          383          418    6.0069324   0.18809091    2.8308749    5.5814852    58304.709            1            2
Loop time of 0.23842 on 4 procs for 1000 steps with 577 atoms

Step Temp PotEng f_HG f_HG[1] f_HG[2] f_HG[3] f_HG[4] f_HG[5] f_HG[6] f_HG[7] f_HG[8] f_HG[9] f_HG[10] f_HG[11]
12000    552.07348   -3197.6675 0.0063435549    1.1586177   0.29809086          144          143    6.0069324   0.18016667    2.8308749    5.5814852    66990.451            1            2
Loop time of 0.00602174 on 4 procs for 13 steps with 577 atoms

Step Temp PotEng f_HG f_HG[1] f_HG[2] f_HG[3] f_HG[4] f_HG[5] f_HG[6] f_HG[7] f_HG[8] f_HG[9] f_HG[10] f_HG[11]
12000    552.07348   -3197.6675 0.0063435549    1.1586177   0.29809086          144          143    6.0069324   0.18016667    2.8308749    5.5814852    66990.451            1            2
Loop time of 0.237671 on 4 procs for 1000 steps with 577 atoms

Step Temp PotEng f_HG f_HG[1] f_HG[2] f_HG[3] f_HG[4] f_HG[5] f_HG[6] f_HG[7] f_HG[8] f_HG[9] f_HG[10] f_HG[11]
13000    471.13412   -3198.1314   0.30918747    1307.5821   0.18532743          116          123    6.0069324   0.17338462    2.8308749    5.5814852    74345.114            1            2
Loop time of 0.00647223 on 4 procs for 14 steps with 577 atoms

Step Temp PotEng f_HG f_HG[1] f_HG[2] f_HG[3] f_HG[4] f_HG[5] f_HG[6] f_HG[7] f_HG[8] f_HG[9] f_HG[10] f_HG[11]
13000    471.13412   -3198.1314   0.30918747    1307.5821   0.18532743          116          123    6.0069324   0.17338462    2.8308749    5.5814852    74345.114            1            2
Loop time of 0.238789 on 4 procs for 1000 steps with 577 atoms

Step Temp PotEng f_HG f_HG[1] f_HG[2] f_HG[3] f_HG[4] f_HG[5] f_HG[6] f_HG[7] f_HG[8] f_HG[9] f_HG[10] f_HG[11]
14000    470.81692   -3198.8871   0.10763953    12.160669   0.26575343          275          577    6.0069324   0.18235714    2.8308749    5.5814852    76252.748            1            2
Loop time of 0.00651169 on 4 procs for 15 steps with 577 atoms

Step Temp PotEng f_HG f_HG[1] f_HG[2] f_HG[3] f_HG[4] f_HG[5] f_HG[6] f_HG[7] f_HG[8] f_HG[9] f_HG[10] f_HG[11]
14000    470.81692   -3198.8871   0.10763953    12.160669   0.26575343          275          577    6.0069324   0.18235714    2.8308749    5.5814852    76252.748            1            2
Loop time of 0.23755 on 4 procs for 1000 steps with 577 atoms

Step Temp PotEng f_HG f_HG[1] f_HG[2] f_HG[3] f_HG[4] f_HG[5] f_HG[6] f_HG[7] f_HG[8] f_HG[9] f_HG[10] f_HG[11]
15000     473.2435   -3199.0907   0.20712247    122.37713   0.22960391          569          570    6.0069324   0.18553333    2.8308749    5.5814852    81659.641            1            2
Loop time of 0.00644851 on 4 procs for 14 steps with 577 atoms

Step Temp PotEng f_HG f_HG[1] f_HG[2] f_HG[3] f_HG[4] f_HG[5] f_HG[6] f_HG[7] f_HG[8] f_HG[9] f_HG[10] f_HG[11]
15000     473.2435   -3199.0907   0.20712247    122.37713   0.22960391          569          570    6.0069324   0.18553333    2.8308749    5.5814852    81659.641            1            2
Loop time of 0.240195 on 4 procs for 1000 steps with 577 atoms

Step Temp PotEng f_HG f_HG[1] f_HG[2] f_HG[3] f_HG[4] f_HG[5] f_HG[6] f_HG[7] f_HG[8] f_HG[9] f_HG[10] f_HG[11]
16000    504.33627   -3199.1713  0.036898146    2.3545967   0.28871843          264          275    6.0069324     0.199875    2.8308749    5.5814852    82224.366            1            2
Loop time of 0.00684911 on 4 procs for 15 steps with 577 atoms

Step Temp PotEng f_HG f_HG[1] f_HG[2] f_HG[3] f_HG[4] f_HG[5] f_HG[6] f_HG[7] f_HG[8] f_HG[9] f_HG[10] f_HG[11]
16000    504.33627   -3199.1713  0.036898146    2.3545967   0.28871843          264          275    6.0069324     0.199875    2.8308749    5.5814852    82224.366            1            2
Loop time of 0.240567 on 4 procs for 1000 steps with 577 atoms

Step Temp PotEng f_HG f_HG[1] f_HG[2] f_HG[3] f_HG[4] f_HG[5] f_HG[6] f_HG[7] f_HG[8] f_HG[9] f_HG[10] f_HG[11]
17000    497.60607    -3198.212 0.0067178767    1.1687272   0.29797782          264          275    6.0069324        0.217    2.8308749    5.5814852     82242.51            1            2
Loop time of 0.00708336 on 4 procs for 16 steps with 577 atoms

Step Temp PotEng f_HG f_HG[1] f_HG[2] f_HG[3] f_HG[4] f_HG[5] f_HG[6] f_HG[7] f_HG[8] f_HG[9] f_HG[10] f_HG[11]
17000    497.60607    -3198.212 0.0067178767    1.1687272   0.29797782          264          275    6.0069324        0.217    2.8308749    5.5814852     82242.51            1            2
Loop time of 0.240636 on 4 procs for 1000 steps with 577 atoms

Step Temp PotEng f_HG f_HG[1] f_HG[2] f_HG[3] f_HG[4] f_HG[5] f_HG[6] f_HG[7] f_HG[8] f_HG[9] f_HG[10] f_HG[11]
18000    523.92168    -3199.831   0.21046671    132.25396   0.22828927          264          275    6.0069324   0.22444444    2.8308749    5.5814852    82304.143            1            2
Loop time of 0.00646216 on 4 procs for 14 steps with 577 atoms

Step Temp PotEng f_HG f_HG[1] f_HG[2] f_HG[3] f_HG[4] f_HG[5] f_HG[6] f_HG[7] f_HG[8] f_HG[9] f_HG[10] f_HG[11]
18000    523.92168    -3199.831   0.21046671    132.25396   0.22828927          264          275    6.0069324   0.22444444    2.8308749    5.5814852    82304.143            1            2
Loop time of 0.239259 on 4 procs for 1000 steps with 577 atoms

Step Temp PotEng f_HG f_HG[1] f_HG[2] f_HG[3] f_HG[4] f_HG[5] f_HG[6] f_HG[7] f_HG[8] f_HG[9] f_HG[10] f_HG[11]
19000    538.76557   -3198.7203  0.036295998    2.3219194   0.28890608          397          400    6.0069324        0.228    2.8308749    5.5814852    83487.232            1            2
Loop time of 0.0061307 on 4 procs for 14 steps with 577 atoms

Loop time of 0.241751 on 4 procs for 1000 steps with 577 atoms

Loop time of 0.00646776 on 4 procs for 14 steps with 577 atoms

Loop time of 0.239403 on 4 procs for 1000 steps with 577 atoms

Loop time of 0.00643963 on 4 procs for 14 steps with 577 atoms

Loop time of 0.241227 on 4 procs for 1000 steps with 577 atoms

Loop time of 0.015579 on 4 procs for 33 steps with 577 atoms

Loop time of 0.240257 on 4 procs for 1000 steps with 577 atoms

Loop time of 0.0067718 on 4 procs for 15 steps with 577 atoms

Loop time of 0.241014 on 4 procs for 1000 steps with 577 atoms

Loop time of 0.006706 on 4 procs for 14 steps with 577 atoms

Loop time of 0.239452 on 4 procs for 1000 steps with 577 atoms

Loop time of 0.00622821 on 4 procs for 13 steps with 577 atoms

Loop time of 0.271219 on 4 procs for 1000 steps with 577 atoms

Loop time of 0.0105773 on 4 procs for 15 steps with 577 atoms

Loop time of 0.293879 on 4 procs for 1000 steps with 577 atoms

Loop time of 0.00895333 on 4 procs for 15 steps with 577 atoms

Loop time of 0.286141 on 4 procs for 1000 steps with 577 atoms

Loop time of 0.00648469 on 4 procs for 14 steps with 577 atoms

Loop time of 0.24066 on 4 procs for 1000 steps with 577 atoms

Loop time of 0.0063417 on 4 procs for 14 steps with 577 atoms

Loop time of 0.259515 on 4 procs for 1000 steps with 577 atoms

Loop time of 0.0123347 on 4 procs for 14 steps with 577 atoms

Loop time of 0.321976 on 4 procs for 1000 steps with 577 atoms

Loop time of 0.00811768 on 4 procs for 14 steps with 577 atoms

Loop time of 0.290834 on 4 procs for 1000 steps with 577 atoms

Loop time of 0.00746775 on 4 procs for 13 steps with 577 atoms

Loop time of 0.243351 on 4 procs for 1000 steps with 577 atoms

Loop time of 0.00658584 on 4 procs for 14 steps with 577 atoms

Loop time of 0.238415 on 4 procs for 1000 steps with 577 atoms

Loop time of 0.00771642 on 4 procs for 16 steps with 577 atoms

Loop time of 0.240164 on 4 procs for 1000 steps with 577 atoms

Loop time of 0.00711012 on 4 procs for 15 steps with 577 atoms

Loop time of 0.240289 on 4 procs for 1000 steps with 577 atoms

Loop time of 0.00642586 on 4 procs for 14 steps with 577 atoms

Loop time of 0.239462 on 4 procs for 1000 steps with 577 atoms

Loop time of 0.00713468 on 4 procs for 15 steps with 577 atoms

Loop time of 0.239667 on 4 procs for 1000 steps with 577 atoms

Loop time of 0.00627661 on 4 procs for 13 steps with 577 atoms

Loop time of 0.238329 on 4 procs for 1000 steps with 577 atoms

Loop time of 0.00683451 on 4 procs for 15 steps with 577 atoms

Loop time of 0.23954 on 4 procs for 1000 steps with 577 atoms

Loop time of 0.00652599 on 4 procs for 14 steps with 577 atoms

Loop time of 0.239863 on 4 procs for 1000 steps with 577 atoms

Loop time of 0.00668764 on 4 procs for 14 steps with 577 atoms

Loop time of 0.238458 on 4 procs for 1000 steps with 577 atoms

Loop time of 0.00658375 on 4 procs for 14 steps with 577 atoms

Loop time of 0.240476 on 4 procs for 1000 steps with 577 atoms

Loop time of 0.00655174 on 4 procs for 15 steps with 577 atoms

Loop time of 0.240179 on 4 procs for 1000 steps with 577 atoms

Loop time of 0.00717342 on 4 procs for 15 steps with 577 atoms

Loop time of 0.24121 on 4 procs for 1000 steps with 577 atoms

Loop time of 0.00649601 on 4 procs for 13 steps with 577 atoms

Loop time of 0.239441 on 4 procs for 1000 steps with 577 atoms

Loop time of 0.00681973 on 4 procs for 15 steps with 577 atoms

Loop time of 0.24022 on 4 procs for 1000 steps with 577 atoms

Loop time of 0.007438 on 4 procs for 16 steps with 577 atoms

Loop time of 0.241529 on 4 procs for 1000 steps with 577 atoms

Loop time of 0.00695753 on 4 procs for 15 steps with 577 atoms

Loop time of 0.241009 on 4 procs for 1000 steps with 577 atoms

Loop time of 0.00608408 on 4 procs for 13 steps with 577 atoms

Loop time of 0.239941 on 4 procs for 1000 steps with 577 atoms

Loop time of 0.00602353 on 4 procs for 13 steps with 577 atoms

Loop time of 0.240274 on 4 procs for 1000 steps with 577 atoms

Loop time of 0.00743866 on 4 procs for 15 steps with 577 atoms

Loop time of 0.239709 on 4 procs for 1000 steps with 577 atoms

Loop time of 0.00786757 on 4 procs for 17 steps with 577 atoms

Loop time of 0.240351 on 4 procs for 1000 steps with 577 atoms

Loop time of 0.0067966 on 4 procs for 14 steps with 577 atoms

Loop time of 0.238634 on 4 procs for 1000 steps with 577 atoms

Loop time of 0.00671387 on 4 procs for 14 steps with 577 atoms

Loop time of 0.240888 on 4 procs for 1000 steps with 577 atoms

Loop time of 0.00596166 on 4 procs for 13 steps with 577 atoms

Loop time of 0.239487 on 4 procs for 1000 steps with 577 atoms

Loop time of 0.00619745 on 4 procs for 14 steps with 577 atoms

Loop time of 0.241093 on 4 procs for 1000 steps with 577 atoms

Loop time of 0.00772929 on 4 procs for 16 steps with 577 atoms

Loop time of 0.239761 on 4 procs for 1000 steps with 577 atoms

Loop time of 0.00660753 on 4 procs for 14 steps with 577 atoms

Loop time of 0.241627 on 4 procs for 1000 steps with 577 atoms

Loop time of 0.00618345 on 4 procs for 13 steps with 577 atoms

Loop time of 0.239681 on 4 procs for 1000 steps with 577 atoms

Loop time of 0.00685382 on 4 procs for 15 steps with 577 atoms

Loop time of 0.239598 on 4 procs for 1000 steps with 577 atoms

Loop time of 0.00683248 on 4 procs for 14 steps with 577 atoms

Loop time of 0.238224 on 4 procs for 1000 steps with 577 atoms

Loop time of 0.00685287 on 4 procs for 14 steps with 577 atoms

Loop time of 0.238676 on 4 procs for 1000 steps with 577 atoms

Loop time of 0.00670481 on 4 procs for 14 steps with 577 atoms

Loop time of 0.238342 on 4 procs for 1000 steps with 577 atoms

Loop time of 0.00604939 on 4 procs for 14 steps with 577 atoms

Loop time of 0.239458 on 4 procs for 1000 steps with 577 atoms

Loop time of 0.00661784 on 4 procs for 14 steps with 577 atoms

Loop time of 0.239712 on 4 procs for 1000 steps with 577 atoms

Loop time of 0.00680089 on 4 procs for 14 steps with 577 atoms

Loop time of 0.239938 on 4 procs for 1000 steps with 577 atoms

Loop time of 0.00659657 on 4 procs for 14 steps with 577 atoms

Loop time of 0.240483 on 4 procs for 1000 steps with 577 atoms

Loop time of 0.00666052 on 4 procs for 14 steps with 577 atoms

Loop time of 0.23984 on 4 procs for 1000 steps with 577 atoms

Loop time of 0.0070501 on 4 procs for 15 steps with 577 atoms

Loop time of 0.240016 on 4 procs for 1000 steps with 577 atoms

Loop time of 0.00656152 on 4 procs for 14 steps with 577 atoms

Loop time of 0.238921 on 4 procs for 1000 steps with 577 atoms

Loop time of 0.00665921 on 4 procs for 16 steps with 577 atoms

Loop time of 0.238494 on 4 procs for 1000 steps with 577 atoms

Loop time of 0.00666285 on 4 procs for 14 steps with 577 atoms

Loop time of 0.240884 on 4 procs for 1000 steps with 577 atoms

Loop time of 0.00641418 on 4 procs for 14 steps with 577 atoms

Loop time of 0.239838 on 4 procs for 1000 steps with 577 atoms

Loop time of 0.00640178 on 4 procs for 14 steps with 577 atoms

Loop time of 0.241485 on 4 procs for 1000 steps with 577 atoms

Loop time of 0.00727272 on 4 procs for 15 steps with 577 atoms

Loop time of 0.246189 on 4 procs for 1000 steps with 577 atoms

Loop time of 0.00856209 on 4 procs for 15 steps with 577 atoms

Loop time of 0.244489 on 4 procs for 1000 steps with 577 atoms

Loop time of 0.00662231 on 4 procs for 14 steps with 577 atoms

Loop time of 0.238902 on 4 procs for 1000 steps with 577 atoms

Loop time of 0.00632596 on 4 procs for 14 steps with 577 atoms

Loop time of 0.238987 on 4 procs for 1000 steps with 577 atoms

Loop time of 0.00644779 on 4 procs for 14 steps with 577 atoms

Loop time of 0.238806 on 4 procs for 1000 steps with 577 atoms

Loop time of 0.00644064 on 4 procs for 14 steps with 577 atoms

Loop time of 0.240714 on 4 procs for 1000 steps with 577 atoms

Loop time of 0.00675607 on 4 procs for 15 steps with 577 atoms

Loop time of 0.239094 on 4 procs for 1000 steps with 577 atoms

Loop time of 0.00662041 on 4 procs for 14 steps with 577 atoms

Loop time of 0.240335 on 4 procs for 1000 steps with 577 atoms

Loop time of 0.00710487 on 4 procs for 15 steps with 577 atoms

Loop time of 0.239069 on 4 procs for 1000 steps with 577 atoms

Loop time of 0.00662088 on 4 procs for 14 steps with 577 atoms

Loop time of 0.240117 on 4 procs for 1000 steps with 577 atoms

Loop time of 0.00642967 on 4 procs for 14 steps with 577 atoms

Loop time of 0.23899 on 4 procs for 1000 steps with 577 atoms

Loop time of 0.00667548 on 4 procs for 14 steps with 577 atoms

Loop time of 0.241176 on 4 procs for 1000 steps with 577 atoms

Loop time of 0.00634283 on 4 procs for 14 steps with 577 atoms

Loop time of 0.239888 on 4 procs for 1000 steps with 577 atoms

Loop time of 0.00669366 on 4 procs for 14 steps with 577 atoms

Loop time of 0.241238 on 4 procs for 1000 steps with 577 atoms

Loop time of 0.00632095 on 4 procs for 14 steps with 577 atoms

Loop time of 0.240092 on 4 procs for 1000 steps with 577 atoms

Loop time of 0.00614023 on 4 procs for 13 steps with 577 atoms

Loop time of 0.240887 on 4 procs for 1000 steps with 577 atoms

Loop time of 0.00709724 on 4 procs for 15 steps with 577 atoms

Loop time of 0.241415 on 4 procs for 1000 steps with 577 atoms

Loop time of 0.00761282 on 4 procs for 14 steps with 577 atoms

Loop time of 0.242326 on 4 procs for 1000 steps with 577 atoms

Loop time of 0.006814 on 4 procs for 15 steps with 577 atoms

Loop time of 0.239427 on 4 procs for 1000 steps with 577 atoms

Loop time of 0.00671053 on 4 procs for 14 steps with 577 atoms

Loop time of 0.240334 on 4 procs for 1000 steps with 577 atoms

Loop time of 0.00659347 on 4 procs for 14 steps with 577 atoms

Loop time of 0.239501 on 4 procs for 1000 steps with 577 atoms

Loop time of 0.00752759 on 4 procs for 16 steps with 577 atoms

Loop time of 0.241445 on 4 procs for 1000 steps with 577 atoms

Loop time of 0.00657606 on 4 procs for 14 steps with 577 atoms

Loop time of 0.239002 on 4 procs for 1000 steps with 577 atoms

Loop time of 0.00612688 on 4 procs for 13 steps with 577 atoms

Loop time of 0.239787 on 4 procs for 1000 steps with 577 atoms

Loop time of 0.00708294 on 4 procs for 15 steps with 577 atoms

Loop time of 0.239291 on 4 procs for 1000 steps with 577 atoms

Loop time of 0.00685054 on 4 procs for 15 steps with 577 atoms

Final hyper stats ...

Cummulative quantities for fix hyper:
  hyper time = 415874
  event timesteps = 3
  # of atoms in events = 6
Quantities for this hyper run:
  event timesteps = 3
  # of atoms in events = 6
  max length of any bond = 5.58149
  max drift distance of any atom = 2.83087
  fraction of steps & bonds with zero bias = 0.19018
Current quantities:
  ave bonds/atom = 6.00693

Loop time of 25.9832 on 4 procs for 100000 steps with 577 atoms

Hyper stats:
  Dynamics time (%) = 24.8121 (95.4928)
  Quench   time (%) = 0.715868 (2.75512)
  Other    time (%) = 0.879782 (3.38596)
